
*** ChampSim Multicore Out-of-Order Simulator ***

Warmup Instructions: 50000000
Simulation Instructions: 200000000
Number of CPUs: 8
threads:1

L1I Configuration:
L1I_SET:64
L1I_WAY:8
L1I_RQ_SIZE:64
L1I_WQ_SIZE:64
L1I_PQ_SIZE:8
L1I_MSHR_SIZE:8

L1D Configuration:
L1D_SET:64
L1D_WAY:12
L1D_RQ_SIZE:64
L1D_WQ_SIZE:64
L1D_PQ_SIZE:8
L1D_MSHR_SIZE:16

L2C Configuration:
L2C_SET:1024
L2C_WAY:8
L2C_RQ_SIZE:32
L2C_WQ_SIZE:32
L2C_PQ_SIZE:16
L2C_MSHR_SIZE:32

LLC Configuration:
LLC_SET:2048
LLC_WAY:12
LLC SLICES:8
LLC_RQ_SIZE:64
LLC_WQ_SIZE:64
LLC_PQ_SIZE:32
LLC_MSHR_SIZE:64

Interconnect OFF
Attacker deprioritize is: OFF
Off-chip DRAM Size: 8192 MB Channels: 2 Width: 64-bit Data Rate: 3200 MT/s
PAGE SIZE in KB: 4.000000 
PAGE SIZE in MB: 0.003906 
PAGE offset in bits: 12 
CEASER-S_LLC:0
MIRAGE : 1
CEASER_LATENCY:3
REMAP : OFF
Partitions : 1
Multi-Step : OFF
BFS : OFF

CPU 0 runs /home/bhavsar/USENIX/perf/maya-cache/performance-analysis/GLRU-mirage/../../../../../spec/607.cactuBSSN_s-2421B.champsimtrace.xz
CPU 1 runs /home/bhavsar/USENIX/perf/maya-cache/performance-analysis/GLRU-mirage/../../../../../spec/607.cactuBSSN_s-2421B.champsimtrace.xz
CPU 2 runs /home/bhavsar/USENIX/perf/maya-cache/performance-analysis/GLRU-mirage/../../../../../spec/607.cactuBSSN_s-2421B.champsimtrace.xz
CPU 3 runs /home/bhavsar/USENIX/perf/maya-cache/performance-analysis/GLRU-mirage/../../../../../spec/607.cactuBSSN_s-2421B.champsimtrace.xz
CPU 4 runs /home/bhavsar/USENIX/perf/maya-cache/performance-analysis/GLRU-mirage/../../../../../spec/607.cactuBSSN_s-2421B.champsimtrace.xz
CPU 5 runs /home/bhavsar/USENIX/perf/maya-cache/performance-analysis/GLRU-mirage/../../../../../spec/607.cactuBSSN_s-2421B.champsimtrace.xz
CPU 6 runs /home/bhavsar/USENIX/perf/maya-cache/performance-analysis/GLRU-mirage/../../../../../spec/607.cactuBSSN_s-2421B.champsimtrace.xz
CPU 7 runs /home/bhavsar/USENIX/perf/maya-cache/performance-analysis/GLRU-mirage/../../../../../spec/607.cactuBSSN_s-2421B.champsimtrace.xz
CPU 0 Bimodal branch predictor
Initialize Hawkeye state
Initialize Hawkeye state
Initialize Hawkeye state
Initialize Hawkeye state
Initialize Hawkeye state
Initialize Hawkeye state
Initialize Hawkeye state
Initialize Hawkeye state
CPU 1 Bimodal branch predictor
Initialize Hawkeye state
Initialize Hawkeye state
Initialize Hawkeye state
Initialize Hawkeye state
Initialize Hawkeye state
Initialize Hawkeye state
Initialize Hawkeye state
Initialize Hawkeye state
CPU 2 Bimodal branch predictor
Initialize Hawkeye state
Initialize Hawkeye state
Initialize Hawkeye state
Initialize Hawkeye state
Initialize Hawkeye state
Initialize Hawkeye state
Initialize Hawkeye state
Initialize Hawkeye state
CPU 3 Bimodal branch predictor
Initialize Hawkeye state
Initialize Hawkeye state
Initialize Hawkeye state
Initialize Hawkeye state
Initialize Hawkeye state
Initialize Hawkeye state
Initialize Hawkeye state
Initialize Hawkeye state
CPU 4 Bimodal branch predictor
Initialize Hawkeye state
Initialize Hawkeye state
Initialize Hawkeye state
Initialize Hawkeye state
Initialize Hawkeye state
Initialize Hawkeye state
Initialize Hawkeye state
Initialize Hawkeye state
CPU 5 Bimodal branch predictor
Initialize Hawkeye state
Initialize Hawkeye state
Initialize Hawkeye state
Initialize Hawkeye state
Initialize Hawkeye state
Initialize Hawkeye state
Initialize Hawkeye state
Initialize Hawkeye state
CPU 6 Bimodal branch predictor
Initialize Hawkeye state
Initialize Hawkeye state
Initialize Hawkeye state
Initialize Hawkeye state
Initialize Hawkeye state
Initialize Hawkeye state
Initialize Hawkeye state
Initialize Hawkeye state
CPU 7 Bimodal branch predictor
Initialize Hawkeye state
Initialize Hawkeye state
Initialize Hawkeye state
Initialize Hawkeye state
Initialize Hawkeye state
Initialize Hawkeye state
Initialize Hawkeye state
Initialize Hawkeye state
SAE
SAE
SAE
SAE
SAE
SAE
SAE
SAE
SAE
SAE
SAE
SAE
SAE
SAE
SAE
SAE
SAE
SAE
SAE
SAE
SAE
SAE
SAE
SAE
SAE
SAE
SAE
SAE
SAE
SAE
SAE
SAE
SAE
SAE
SAE
SAE
SAE
SAE
SAE
SAE
SAE
SAE
SAE
SAE
SAE
SAE
SAE
SAE
SAE
SAE
SAE
SAE
SAE
SAE
SAE
SAE
SAE
SAE
SAE
SAE
SAE
SAE
SAE
SAE
SAE
SAE
SAE
SAE
SAE
SAE
SAE
SAE
SAE
SAE
SAE
SAE
SAE
SAE
SAE
SAE
SAE
SAE
SAE
SAE
SAE
SAE
SAE
SAE
SAE
SAE
SAE
SAE
SAE
SAE
SAE
SAE
SAE
SAE
SAE
SAE
SAE
SAE
SAE
SAE
SAE
SAE
SAE
SAE
SAE
SAE
SAE
SAE
SAE
SAE
SAE
SAE
SAE
SAE
SAE
SAE
SAE
SAE
SAE
SAE
SAE
SAE
SAE
SAE
SAE
SAE
SAE
SAE
SAE
SAE
SAE
SAE
SAE
SAE
SAE
SAE
SAE
SAE
SAE
SAE
SAE
SAE
SAE
SAE
SAE
SAE
SAE
SAE
SAE
SAE
SAE
SAE
SAE
SAE
SAE
SAE
SAE
SAE
SAE
SAE
SAE
SAE
SAE
SAE
SAE
SAE
SAE
SAE
SAE
SAE
SAE
SAE
SAE
SAE
SAE
SAE
SAE
SAE
SAE
SAE
SAE
SAE
SAE
SAE
SAE
SAE
SAE
SAE
SAE
SAE
SAE
SAE
SAE
SAE
SAE
SAE
SAE
SAE
SAE
SAE
SAE
SAE
SAE
SAE
SAE
SAE
SAE
SAE
SAE
SAE
SAE
SAE
SAE
SAE
SAE
SAE
SAE
SAE
SAE
Heartbeat CPU 5 instructions: 10000001 cycles: 5478758 heartbeat IPC: 1.82523 cumulative IPC: 1.82523 (Simulation time: 0 hr 18 min 44 sec) 
 Total Blocks : 196608 Invalid Blocks : 189
Heartbeat CPU 3 instructions: 10000001 cycles: 5479239 heartbeat IPC: 1.82507 cumulative IPC: 1.82507 (Simulation time: 0 hr 18 min 44 sec) 
 Total Blocks : 196608 Invalid Blocks : 189
Heartbeat CPU 6 instructions: 10000001 cycles: 5479320 heartbeat IPC: 1.82504 cumulative IPC: 1.82504 (Simulation time: 0 hr 18 min 44 sec) 
 Total Blocks : 196608 Invalid Blocks : 189
Heartbeat CPU 1 instructions: 10000001 cycles: 5479520 heartbeat IPC: 1.82498 cumulative IPC: 1.82498 (Simulation time: 0 hr 18 min 44 sec) 
 Total Blocks : 196608 Invalid Blocks : 189
Heartbeat CPU 0 instructions: 10000001 cycles: 5479752 heartbeat IPC: 1.8249 cumulative IPC: 1.8249 (Simulation time: 0 hr 18 min 44 sec) 
 Total Blocks : 196608 Invalid Blocks : 189
Heartbeat CPU 4 instructions: 10000001 cycles: 5479783 heartbeat IPC: 1.82489 cumulative IPC: 1.82489 (Simulation time: 0 hr 18 min 44 sec) 
 Total Blocks : 196608 Invalid Blocks : 189
Heartbeat CPU 7 instructions: 10000001 cycles: 5479940 heartbeat IPC: 1.82484 cumulative IPC: 1.82484 (Simulation time: 0 hr 18 min 44 sec) 
 Total Blocks : 196608 Invalid Blocks : 189
Heartbeat CPU 2 instructions: 10000001 cycles: 5480119 heartbeat IPC: 1.82478 cumulative IPC: 1.82478 (Simulation time: 0 hr 18 min 44 sec) 
 Total Blocks : 196608 Invalid Blocks : 189
SAE
SAE
SAE
SAE
SAE
SAE
SAE
SAE
SAE
SAE
SAE
SAE
SAE
SAE
SAE
SAE
SAE
SAE
SAE
SAE
SAE
SAE
SAE
SAE
SAE
SAE
SAE
SAE
SAE
SAE
SAE
SAE
SAE
SAE
SAE
SAE
SAE
SAE
SAE
SAE
SAE
SAE
SAE
SAE
SAE
SAE
SAE
SAE
SAE
SAE
SAE
SAE
SAE
SAE
SAE
SAE
SAE
SAE
SAE
SAE
SAE
SAE
SAE
SAE
SAE
SAE
SAE
SAE
SAE
SAE
SAE
SAE
SAE
SAE
SAE
SAE
SAE
SAE
SAE
SAE
SAE
SAE
SAE
SAE
SAE
SAE
SAE
SAE
SAE
SAE
SAE
SAE
SAE
SAE
SAE
SAE
SAE
SAE
SAE
SAE
SAE
SAE
SAE
SAE
SAE
SAE
SAE
SAE
SAE
SAE
SAE
SAE
SAE
SAE
SAE
SAE
SAE
SAE
SAE
SAE
SAE
SAE
SAE
SAE
SAE
SAE
SAE
SAE
SAE
SAE
SAE
SAE
SAE
SAE
SAE
SAE
SAE
SAE
SAE
SAE
SAE
SAE
SAE
SAE
SAE
SAE
SAE
SAE
SAE
SAE
SAE
SAE
SAE
SAE
SAE
SAE
SAE
SAE
SAE
SAE
SAE
SAE
SAE
SAE
SAE
SAE
SAE
SAE
SAE
SAE
SAE
SAE
SAE
SAE
SAE
SAE
SAE
SAE
SAE
SAE
SAE
SAE
SAE
SAE
SAE
SAE
SAE
SAE
SAE
SAE
SAE
SAE
SAE
SAE
SAE
SAE
SAE
SAE
SAE
SAE
SAE
SAE
SAE
SAE
SAE
SAE
SAE
SAE
SAE
SAE
SAE
SAE
SAE
SAE
SAE
SAE
SAE
SAE
SAE
SAE
SAE
SAE
SAE
SAE
SAE
SAE
SAE
SAE
SAE
SAE
SAE
SAE
SAE
SAE
SAE
SAE
SAE
SAE
SAE
SAE
SAE
SAE
SAE
SAE
SAE
SAE
SAE
SAE
SAE
SAE
SAE
SAE
SAE
SAE
SAE
SAE
SAE
SAE
SAE
SAE
SAE
SAE
SAE
SAE
SAE
SAE
SAE
SAE
SAE
SAE
SAE
SAE
SAE
SAE
SAE
SAE
SAE
SAE
SAE
SAE
SAE
SAE
SAE
SAE
SAE
SAE
SAE
SAE
SAE
SAE
SAE
SAE
SAE
SAE
SAE
SAE
SAE
SAE
SAE
SAE
SAE
SAE
SAE
SAE
SAE
SAE
SAE
SAE
SAE
SAE
SAE
SAE
SAE
SAE
SAE
SAE
SAE
SAE
SAE
SAE
SAE
SAE
SAE
SAE
SAE
SAE
SAE
SAE
SAE
SAE
SAE
SAE
SAE
SAE
SAE
SAE
SAE
SAE
SAE
SAE
SAE
SAE
SAE
SAE
SAE
SAE
SAE
SAE
SAE
SAE
SAE
SAE
SAE
SAE
SAE
SAE
SAE
SAE
SAE
SAE
SAE
SAE
SAE
SAE
SAE
SAE
SAE
SAE
SAE
SAE
SAE
SAE
SAE
SAE
SAE
SAE
SAE
SAE
SAE
SAE
SAE
SAE
SAE
SAE
SAE
SAE
SAE
SAE
SAE
SAE
SAE
SAE
SAE
SAE
SAE
SAE
SAE
SAE
SAE
SAE
SAE
SAE
SAE
SAE
SAE
SAE
SAE
SAE
SAE
SAE
SAE
SAE
SAE
SAE
SAE
SAE
SAE
SAE
SAE
SAE
SAE
SAE
SAE
SAE
SAE
SAE
SAE
SAE
SAE
SAE
SAE
SAE
SAE
SAE
SAE
SAE
SAE
SAE
SAE
SAE
SAE
SAE
SAE
SAE
SAE
SAE
SAE
SAE
SAE
SAE
SAE
SAE
SAE
SAE
SAE
SAE
SAE
SAE
SAE
SAE
SAE
SAE
SAE
SAE
SAE
SAE
SAE
SAE
SAE
SAE
SAE
SAE
SAE
SAE
SAE
SAE
SAE
SAE
SAE
SAE
SAE
SAE
SAE
SAE
SAE
SAE
SAE
SAE
SAE
SAE
SAE
SAE
SAE
SAE
SAE
SAE
SAE
SAE
SAE
SAE
SAE
SAE
SAE
SAE
SAE
SAE
SAE
SAE
SAE
SAE
SAE
SAE
SAE
SAE
SAE
SAE
SAE
SAE
SAE
SAE
SAE
SAE
SAE
SAE
SAE
SAE
SAE
SAE
SAE
SAE
SAE
SAE
SAE
SAE
SAE
SAE
SAE
SAE
SAE
SAE
SAE
SAE
SAE
SAE
SAE
SAE
SAE
SAE
SAE
SAE
SAE
SAE
SAE
SAE
SAE
SAE
SAE
SAE
SAE
SAE
SAE
SAE
SAE
SAE
SAE
SAE
SAE
SAE
SAE
SAE
SAE
SAE
SAE
SAE
SAE
SAE
SAE
SAE
SAE
SAE
SAE
SAE
SAE
SAE
SAE
SAE
SAE
SAE
SAE
SAE
SAE
SAE
SAE
SAE
SAE
SAE
SAE
SAE
SAE
SAE
SAE
SAE
SAE
SAE
SAE
SAE
SAE
SAE
SAE
SAE
SAE
SAE
SAE
SAE
SAE
SAE
SAE
SAE
SAE
SAE
SAE
SAE
SAE
SAE
SAE
SAE
SAE
SAE
SAE
SAE
SAE
SAE
SAE
SAE
SAE
SAE
SAE
SAE
SAE
SAE
SAE
SAE
SAE
SAE
SAE
SAE
SAE
SAE
SAE
SAE
SAE
SAE
SAE
SAE
SAE
SAE
SAE
SAE
SAE
SAE
SAE
SAE
SAE
SAE
SAE
SAE
SAE
SAE
SAE
SAE
SAE
SAE
SAE
SAE
SAE
SAE
SAE
SAE
SAE
SAE
SAE
SAE
SAE
SAE
SAE
SAE
SAE
SAE
SAE
SAE
SAE
SAE
SAE
SAE
SAE
SAE
SAE
SAE
SAE
SAE
SAE
SAE
SAE
SAE
SAE
SAE
SAE
SAE
SAE
SAE
SAE
SAE
SAE
SAE
SAE
SAE
SAE
SAE
SAE
SAE
SAE
SAE
SAE
SAE
SAE
SAE
SAE
SAE
SAE
SAE
SAE
SAE
SAE
SAE
SAE
SAE
SAE
SAE
SAE
SAE
SAE
SAE
SAE
SAE
SAE
SAE
SAE
SAE
SAE
SAE
SAE
SAE
SAE
SAE
SAE
SAE
SAE
SAE
SAE
SAE
SAE
SAE
SAE
SAE
SAE
SAE
SAE
SAE
SAE
SAE
SAE
SAE
SAE
SAE
SAE
SAE
SAE
SAE
SAE
SAE
SAE
SAE
SAE
SAE
SAE
SAE
SAE
SAE
SAE
SAE
SAE
SAE
SAE
SAE
SAE
SAE
SAE
SAE
SAE
SAE
SAE
SAE
SAE
SAE
SAE
SAE
SAE
SAE
SAE
SAE
SAE
SAE
SAE
SAE
SAE
SAE
SAE
SAE
SAE
SAE
SAE
SAE
SAE
SAE
SAE
SAE
SAE
SAE
SAE
SAE
SAE
SAE
SAE
SAE
SAE
SAE
SAE
SAE
SAE
SAE
SAE
SAE
SAE
SAE
SAE
SAE
SAE
SAE
SAE
SAE
SAE
SAE
SAE
SAE
SAE
SAE
SAE
SAE
SAE
SAE
SAE
SAE
SAE
SAE
SAE
SAE
SAE
SAE
SAE
SAE
SAE
SAE
SAE
SAE
SAE
SAE
SAE
SAE
SAE
SAE
SAE
SAE
SAE
SAE
SAE
SAE
SAE
SAE
SAE
SAE
SAE
SAE
SAE
SAE
SAE
SAE
SAE
SAE
SAE
SAE
SAE
SAE
SAE
SAE
SAE
SAE
SAE
SAE
SAE
SAE
SAE
SAE
SAE
SAE
SAE
SAE
SAE
SAE
SAE
SAE
SAE
SAE
SAE
SAE
SAE
SAE
SAE
SAE
SAE
SAE
SAE
SAE
SAE
SAE
SAE
SAE
SAE
SAE
SAE
SAE
SAE
SAE
SAE
SAE
SAE
SAE
SAE
SAE
SAE
SAE
SAE
SAE
SAE
SAE
SAE
SAE
SAE
SAE
SAE
SAE
SAE
SAE
SAE
SAE
SAE
SAE
SAE
SAE
SAE
SAE
SAE
SAE
SAE
SAE
SAE
SAE
SAE
SAE
SAE
SAE
SAE
SAE
SAE
SAE
SAE
SAE
SAE
SAE
SAE
SAE
SAE
SAE
SAE
SAE
SAE
SAE
SAE
SAE
SAE
SAE
SAE
SAE
SAE
SAE
SAE
SAE
SAE
SAE
SAE
SAE
SAE
SAE
SAE
SAE
SAE
SAE
SAE
SAE
SAE
SAE
SAE
SAE
SAE
SAE
SAE
SAE
SAE
SAE
SAE
SAE
SAE
SAE
SAE
SAE
SAE
SAE
SAE
SAE
SAE
SAE
SAE
SAE
SAE
SAE
SAE
SAE
SAE
SAE
SAE
SAE
SAE
SAE
SAE
SAE
SAE
SAE
SAE
SAE
SAE
SAE
SAE
SAE
SAE
SAE
SAE
SAE
SAE
SAE
SAE
SAE
SAE
SAE
SAE
SAE
SAE
SAE
SAE
SAE
SAE
SAE
SAE
SAE
SAE
SAE
SAE
SAE
SAE
SAE
SAE
SAE
SAE
SAE
SAE
SAE
SAE
SAE
SAE
SAE
SAE
SAE
SAE
SAE
SAE
SAE
SAE
SAE
SAE
SAE
SAE
SAE
SAE
SAE
SAE
SAE
SAE
SAE
SAE
SAE
SAE
SAE
SAE
SAE
SAE
SAE
SAE
SAE
SAE
SAE
SAE
SAE
SAE
SAE
SAE
SAE
SAE
SAE
SAE
SAE
SAE
SAE
SAE
SAE
SAE
SAE
SAE
SAE
SAE
SAE
SAE
SAE
SAE
SAE
SAE
SAE
SAE
SAE
SAE
SAE
SAE
SAE
SAE
SAE
SAE
SAE
SAE
SAE
SAE
SAE
SAE
SAE
SAE
SAE
SAE
SAE
SAE
SAE
SAE
SAE
SAE
SAE
SAE
SAE
SAE
SAE
SAE
SAE
SAE
SAE
SAE
SAE
SAE
SAE
SAE
SAE
SAE
SAE
SAE
SAE
SAE
SAE
SAE
SAE
SAE
SAE
SAE
SAE
SAE
SAE
SAE
SAE
SAE
SAE
SAE
SAE
SAE
SAE
SAE
SAE
SAE
SAE
SAE
SAE
SAE
SAE
SAE
SAE
SAE
SAE
SAE
SAE
SAE
SAE
SAE
SAE
SAE
SAE
SAE
SAE
SAE
SAE
SAE
SAE
SAE
SAE
SAE
SAE
SAE
SAE
SAE
SAE
SAE
SAE
SAE
SAE
SAE
SAE
SAE
SAE
SAE
SAE
SAE
SAE
SAE
SAE
SAE
SAE
SAE
SAE
SAE
SAE
SAE
SAE
SAE
SAE
SAE
SAE
SAE
SAE
SAE
SAE
SAE
SAE
SAE
SAE
SAE
SAE
SAE
SAE
SAE
SAE
SAE
SAE
SAE
SAE
SAE
SAE
SAE
SAE
SAE
SAE
SAE
SAE
SAE
SAE
SAE
SAE
SAE
SAE
SAE
SAE
SAE
SAE
SAE
SAE
SAE
SAE
SAE
SAE
SAE
SAE
SAE
SAE
SAE
SAE
SAE
SAE
SAE
SAE
SAE
SAE
SAE
SAE
SAE
SAE
SAE
SAE
SAE
SAE
SAE
SAE
SAE
SAE
SAE
SAE
SAE
SAE
SAE
SAE
SAE
SAE
SAE
SAE
SAE
SAE
SAE
SAE
SAE
SAE
SAE
SAE
SAE
SAE
SAE
SAE
SAE
SAE
SAE
SAE
SAE
SAE
SAE
SAE
SAE
SAE
SAE
SAE
SAE
SAE
SAE
SAE
SAE
SAE
SAE
SAE
SAE
SAE
SAE
SAE
SAE
SAE
SAE
SAE
SAE
SAE
SAE
SAE
SAE
SAE
SAE
SAE
SAE
SAE
SAE
SAE
SAE
SAE
SAE
SAE
SAE
SAE
SAE
SAE
SAE
SAE
SAE
SAE
SAE
SAE
SAE
SAE
SAE
SAE
SAE
SAE
SAE
SAE
SAE
SAE
SAE
SAE
SAE
SAE
SAE
SAE
SAE
SAE
SAE
SAE
SAE
SAE
SAE
SAE
SAE
SAE
SAE
SAE
SAE
SAE
SAE
SAE
SAE
SAE
SAE
SAE
SAE
SAE
SAE
SAE
SAE
SAE
SAE
SAE
SAE
SAE
SAE
SAE
SAE
SAE
SAE
SAE
SAE
SAE
SAE
SAE
SAE
SAE
SAE
SAE
SAE
SAE
SAE
SAE
SAE
SAE
SAE
SAE
SAE
SAE
SAE
SAE
SAE
SAE
SAE
SAE
SAE
SAE
SAE
SAE
SAE
SAE
SAE
SAE
SAE
SAE
SAE
SAE
SAE
SAE
SAE
SAE
SAE
SAE
SAE
SAE
SAE
SAE
SAE
SAE
SAE
SAE
SAE
SAE
SAE
SAE
SAE
SAE
SAE
SAE
SAE
SAE
SAE
SAE
SAE
SAE
SAE
SAE
SAE
SAE
SAE
SAE
SAE
SAE
SAE
SAE
SAE
SAE
SAE
SAE
SAE
SAE
SAE
SAE
SAE
SAE
SAE
SAE
SAE
SAE
SAE
SAE
SAE
SAE
SAE
SAE
SAE
SAE
SAE
SAE
SAE
SAE
SAE
SAE
SAE
SAE
SAE
SAE
SAE
SAE
SAE
SAE
SAE
Heartbeat CPU 5 instructions: 20000000 cycles: 10967899 heartbeat IPC: 1.82178 cumulative IPC: 1.8235 (Simulation time: 0 hr 29 min 13 sec) 
 Total Blocks : 196608 Invalid Blocks : 832
Heartbeat CPU 3 instructions: 20000000 cycles: 10968151 heartbeat IPC: 1.82185 cumulative IPC: 1.82346 (Simulation time: 0 hr 29 min 13 sec) 
 Total Blocks : 196608 Invalid Blocks : 832
Heartbeat CPU 6 instructions: 20000000 cycles: 10968350 heartbeat IPC: 1.82182 cumulative IPC: 1.82343 (Simulation time: 0 hr 29 min 13 sec) 
 Total Blocks : 196608 Invalid Blocks : 832
Heartbeat CPU 1 instructions: 20000000 cycles: 10968714 heartbeat IPC: 1.82176 cumulative IPC: 1.82337 (Simulation time: 0 hr 29 min 13 sec) 
 Total Blocks : 196608 Invalid Blocks : 831
Heartbeat CPU 0 instructions: 20000000 cycles: 10968932 heartbeat IPC: 1.82177 cumulative IPC: 1.82333 (Simulation time: 0 hr 29 min 13 sec) 
 Total Blocks : 196608 Invalid Blocks : 831
Heartbeat CPU 7 instructions: 20000000 cycles: 10969006 heartbeat IPC: 1.8218 cumulative IPC: 1.82332 (Simulation time: 0 hr 29 min 13 sec) 
 Total Blocks : 196608 Invalid Blocks : 831
Heartbeat CPU 4 instructions: 20000000 cycles: 10969056 heartbeat IPC: 1.82173 cumulative IPC: 1.82331 (Simulation time: 0 hr 29 min 13 sec) 
 Total Blocks : 196608 Invalid Blocks : 831
Heartbeat CPU 2 instructions: 20000000 cycles: 10969129 heartbeat IPC: 1.82182 cumulative IPC: 1.8233 (Simulation time: 0 hr 29 min 13 sec) 
 Total Blocks : 196608 Invalid Blocks : 831
SAE
SAE
SAE
SAE
SAE
SAE
SAE
SAE
SAE
SAE
SAE
SAE
SAE
SAE
SAE
SAE
SAE
SAE
SAE
SAE
SAE
SAE
SAE
SAE
SAE
SAE
SAE
SAE
SAE
SAE
SAE
SAE
SAE
SAE
SAE
SAE
SAE
SAE
SAE
SAE
SAE
SAE
SAE
SAE
SAE
SAE
SAE
SAE
SAE
SAE
SAE
SAE
SAE
SAE
SAE
SAE
SAE
SAE
SAE
SAE
SAE
SAE
SAE
SAE
SAE
SAE
SAE
SAE
SAE
SAE
SAE
SAE
SAE
SAE
SAE
SAE
SAE
SAE
SAE
SAE
SAE
SAE
SAE
SAE
SAE
SAE
SAE
SAE
SAE
SAE
SAE
SAE
SAE
SAE
SAE
SAE
SAE
SAE
SAE
SAE
SAE
SAE
SAE
SAE
SAE
SAE
SAE
SAE
SAE
SAE
SAE
SAE
SAE
SAE
SAE
SAE
SAE
SAE
SAE
SAE
SAE
SAE
SAE
SAE
SAE
SAE
SAE
SAE
SAE
SAE
SAE
SAE
SAE
SAE
SAE
SAE
SAE
SAE
SAE
SAE
SAE
SAE
SAE
SAE
SAE
SAE
SAE
SAE
SAE
SAE
SAE
SAE
SAE
SAE
SAE
SAE
SAE
SAE
SAE
SAE
SAE
SAE
SAE
SAE
SAE
SAE
SAE
SAE
SAE
SAE
SAE
SAE
SAE
SAE
SAE
SAE
SAE
SAE
SAE
SAE
SAE
SAE
SAE
SAE
SAE
SAE
SAE
SAE
SAE
SAE
SAE
SAE
SAE
SAE
SAE
SAE
SAE
SAE
SAE
SAE
SAE
SAE
SAE
SAE
SAE
SAE
SAE
SAE
SAE
SAE
SAE
SAE
SAE
SAE
SAE
SAE
SAE
SAE
SAE
SAE
SAE
SAE
SAE
SAE
SAE
SAE
SAE
SAE
SAE
SAE
SAE
SAE
SAE
SAE
SAE
SAE
SAE
SAE
SAE
SAE
SAE
SAE
SAE
SAE
SAE
SAE
SAE
SAE
SAE
SAE
SAE
SAE
SAE
SAE
SAE
SAE
SAE
SAE
SAE
SAE
SAE
SAE
SAE
SAE
SAE
SAE
SAE
SAE
SAE
SAE
SAE
SAE
SAE
SAE
SAE
SAE
SAE
SAE
SAE
SAE
SAE
SAE
SAE
SAE
SAE
SAE
SAE
SAE
SAE
SAE
SAE
SAE
SAE
SAE
SAE
SAE
SAE
SAE
SAE
SAE
SAE
SAE
SAE
SAE
SAE
SAE
SAE
SAE
SAE
SAE
SAE
SAE
SAE
SAE
SAE
SAE
SAE
SAE
SAE
SAE
SAE
SAE
SAE
SAE
SAE
SAE
SAE
SAE
SAE
SAE
SAE
SAE
SAE
SAE
SAE
SAE
SAE
SAE
SAE
SAE
SAE
SAE
SAE
SAE
SAE
SAE
SAE
SAE
SAE
SAE
SAE
SAE
SAE
SAE
SAE
SAE
SAE
SAE
SAE
SAE
SAE
SAE
SAE
SAE
SAE
SAE
SAE
SAE
SAE
SAE
SAE
SAE
SAE
SAE
SAE
SAE
SAE
SAE
SAE
SAE
SAE
SAE
SAE
SAE
SAE
SAE
SAE
SAE
SAE
SAE
SAE
SAE
SAE
SAE
SAE
SAE
SAE
SAE
SAE
SAE
SAE
SAE
SAE
SAE
SAE
SAE
SAE
SAE
SAE
SAE
SAE
SAE
SAE
SAE
SAE
SAE
SAE
SAE
SAE
SAE
SAE
SAE
SAE
SAE
SAE
SAE
SAE
SAE
SAE
SAE
SAE
SAE
SAE
SAE
SAE
SAE
SAE
SAE
SAE
SAE
SAE
SAE
SAE
SAE
SAE
SAE
SAE
SAE
SAE
SAE
SAE
SAE
SAE
SAE
SAE
SAE
SAE
SAE
SAE
SAE
SAE
SAE
SAE
SAE
SAE
SAE
SAE
SAE
SAE
SAE
SAE
SAE
SAE
SAE
SAE
SAE
SAE
SAE
SAE
SAE
SAE
SAE
SAE
SAE
SAE
SAE
SAE
SAE
SAE
SAE
SAE
SAE
SAE
SAE
SAE
SAE
SAE
SAE
SAE
SAE
SAE
SAE
SAE
SAE
SAE
SAE
SAE
SAE
SAE
SAE
SAE
SAE
SAE
SAE
SAE
SAE
SAE
SAE
SAE
SAE
SAE
SAE
SAE
SAE
SAE
SAE
SAE
SAE
SAE
SAE
SAE
SAE
SAE
SAE
SAE
SAE
SAE
SAE
SAE
SAE
SAE
SAE
SAE
SAE
SAE
SAE
SAE
SAE
SAE
SAE
SAE
SAE
SAE
SAE
SAE
SAE
SAE
SAE
SAE
SAE
SAE
SAE
SAE
SAE
SAE
SAE
SAE
SAE
SAE
SAE
SAE
SAE
SAE
SAE
SAE
SAE
SAE
SAE
SAE
SAE
SAE
SAE
SAE
SAE
SAE
SAE
SAE
SAE
SAE
SAE
SAE
SAE
SAE
SAE
SAE
SAE
SAE
SAE
SAE
SAE
SAE
SAE
SAE
SAE
SAE
SAE
SAE
SAE
SAE
SAE
SAE
SAE
SAE
SAE
SAE
SAE
SAE
SAE
SAE
SAE
SAE
SAE
SAE
SAE
SAE
SAE
SAE
SAE
SAE
SAE
SAE
SAE
SAE
SAE
SAE
SAE
SAE
SAE
SAE
SAE
SAE
SAE
SAE
SAE
SAE
SAE
SAE
SAE
SAE
SAE
SAE
SAE
SAE
SAE
SAE
SAE
SAE
SAE
SAE
SAE
SAE
SAE
SAE
SAE
SAE
SAE
SAE
SAE
SAE
SAE
SAE
SAE
SAE
SAE
SAE
SAE
SAE
SAE
SAE
SAE
SAE
SAE
SAE
SAE
SAE
SAE
SAE
SAE
SAE
SAE
SAE
SAE
SAE
SAE
SAE
SAE
SAE
SAE
SAE
SAE
SAE
SAE
SAE
SAE
SAE
SAE
SAE
SAE
SAE
SAE
SAE
SAE
SAE
SAE
SAE
SAE
SAE
SAE
SAE
SAE
SAE
SAE
SAE
SAE
SAE
SAE
SAE
SAE
SAE
SAE
SAE
SAE
SAE
SAE
SAE
SAE
SAE
SAE
SAE
SAE
SAE
SAE
SAE
SAE
SAE
SAE
SAE
SAE
SAE
SAE
SAE
SAE
SAE
SAE
SAE
SAE
SAE
SAE
SAE
SAE
SAE
SAE
SAE
SAE
SAE
SAE
SAE
SAE
SAE
SAE
SAE
SAE
SAE
SAE
SAE
SAE
SAE
SAE
SAE
SAE
SAE
SAE
SAE
SAE
SAE
SAE
SAE
SAE
SAE
SAE
SAE
SAE
SAE
SAE
SAE
SAE
SAE
SAE
SAE
SAE
SAE
SAE
SAE
SAE
SAE
SAE
SAE
SAE
SAE
SAE
SAE
SAE
SAE
SAE
SAE
SAE
SAE
SAE
SAE
SAE
SAE
SAE
SAE
SAE
SAE
SAE
SAE
SAE
SAE
SAE
SAE
SAE
SAE
SAE
SAE
SAE
SAE
SAE
SAE
SAE
SAE
SAE
SAE
SAE
SAE
SAE
SAE
SAE
SAE
SAE
SAE
SAE
SAE
SAE
SAE
SAE
SAE
SAE
SAE
SAE
SAE
SAE
SAE
SAE
SAE
SAE
SAE
SAE
SAE
SAE
SAE
SAE
SAE
SAE
SAE
SAE
SAE
SAE
SAE
SAE
SAE
SAE
SAE
SAE
SAE
SAE
SAE
SAE
SAE
SAE
SAE
SAE
SAE
SAE
SAE
SAE
SAE
SAE
SAE
SAE
SAE
SAE
SAE
SAE
SAE
SAE
SAE
SAE
SAE
SAE
SAE
SAE
SAE
SAE
SAE
SAE
SAE
SAE
SAE
SAE
SAE
SAE
SAE
SAE
SAE
SAE
SAE
SAE
SAE
SAE
SAE
SAE
SAE
SAE
SAE
SAE
SAE
SAE
SAE
SAE
SAE
SAE
SAE
SAE
SAE
SAE
SAE
SAE
SAE
SAE
SAE
SAE
SAE
SAE
SAE
SAE
SAE
SAE
SAE
SAE
SAE
SAE
SAE
SAE
SAE
SAE
SAE
SAE
SAE
SAE
SAE
SAE
SAE
SAE
SAE
SAE
SAE
SAE
SAE
SAE
SAE
SAE
SAE
SAE
SAE
SAE
SAE
SAE
SAE
SAE
SAE
SAE
SAE
SAE
SAE
SAE
SAE
SAE
SAE
SAE
SAE
SAE
SAE
SAE
SAE
SAE
SAE
SAE
SAE
SAE
SAE
SAE
SAE
SAE
SAE
SAE
SAE
SAE
SAE
SAE
SAE
SAE
SAE
SAE
SAE
SAE
SAE
SAE
SAE
SAE
SAE
SAE
SAE
SAE
SAE
SAE
SAE
SAE
SAE
SAE
SAE
SAE
SAE
SAE
SAE
SAE
SAE
SAE
SAE
SAE
SAE
SAE
SAE
SAE
SAE
SAE
SAE
SAE
SAE
SAE
SAE
SAE
SAE
SAE
SAE
SAE
SAE
SAE
SAE
SAE
SAE
SAE
SAE
SAE
SAE
SAE
SAE
SAE
SAE
SAE
SAE
SAE
SAE
SAE
SAE
SAE
SAE
SAE
SAE
SAE
SAE
SAE
SAE
SAE
SAE
SAE
SAE
SAE
SAE
SAE
SAE
SAE
SAE
SAE
SAE
SAE
SAE
SAE
SAE
SAE
SAE
SAE
SAE
SAE
SAE
SAE
SAE
SAE
SAE
SAE
SAE
SAE
SAE
SAE
SAE
SAE
SAE
SAE
SAE
SAE
SAE
SAE
SAE
SAE
SAE
SAE
SAE
SAE
SAE
SAE
SAE
SAE
SAE
SAE
SAE
SAE
SAE
SAE
SAE
SAE
SAE
SAE
SAE
SAE
SAE
SAE
SAE
SAE
SAE
SAE
SAE
SAE
SAE
SAE
SAE
SAE
SAE
SAE
SAE
SAE
SAE
SAE
SAE
SAE
SAE
SAE
SAE
SAE
SAE
SAE
SAE
SAE
SAE
SAE
SAE
SAE
SAE
SAE
SAE
SAE
SAE
SAE
SAE
SAE
SAE
SAE
SAE
SAE
SAE
SAE
SAE
SAE
SAE
SAE
SAE
SAE
SAE
SAE
SAE
SAE
SAE
SAE
SAE
SAE
SAE
SAE
SAE
SAE
SAE
SAE
SAE
SAE
SAE
SAE
SAE
SAE
SAE
SAE
SAE
SAE
SAE
SAE
SAE
SAE
SAE
SAE
SAE
SAE
SAE
SAE
SAE
SAE
SAE
SAE
SAE
SAE
SAE
SAE
SAE
SAE
SAE
SAE
SAE
SAE
SAE
SAE
SAE
SAE
SAE
SAE
SAE
SAE
SAE
SAE
SAE
SAE
SAE
SAE
SAE
SAE
SAE
SAE
SAE
SAE
SAE
SAE
SAE
SAE
SAE
SAE
SAE
SAE
SAE
SAE
SAE
SAE
SAE
SAE
SAE
SAE
SAE
SAE
SAE
SAE
SAE
SAE
SAE
SAE
SAE
SAE
SAE
SAE
SAE
SAE
SAE
SAE
SAE
SAE
SAE
SAE
SAE
SAE
SAE
SAE
SAE
SAE
SAE
SAE
SAE
SAE
SAE
SAE
SAE
SAE
SAE
SAE
SAE
SAE
SAE
SAE
SAE
SAE
SAE
SAE
SAE
SAE
SAE
SAE
SAE
SAE
SAE
SAE
SAE
SAE
SAE
SAE
SAE
SAE
SAE
SAE
SAE
SAE
SAE
SAE
SAE
SAE
SAE
SAE
SAE
SAE
SAE
SAE
SAE
SAE
SAE
SAE
SAE
SAE
SAE
SAE
SAE
SAE
SAE
SAE
SAE
SAE
SAE
SAE
SAE
SAE
SAE
SAE
SAE
SAE
SAE
SAE
SAE
SAE
SAE
SAE
SAE
SAE
SAE
SAE
SAE
SAE
SAE
SAE
SAE
SAE
SAE
SAE
SAE
SAE
SAE
SAE
SAE
SAE
SAE
SAE
SAE
SAE
SAE
SAE
SAE
SAE
SAE
SAE
SAE
SAE
SAE
SAE
SAE
SAE
SAE
SAE
SAE
SAE
SAE
SAE
SAE
SAE
SAE
SAE
SAE
SAE
SAE
SAE
SAE
SAE
SAE
SAE
SAE
SAE
SAE
SAE
SAE
SAE
SAE
SAE
SAE
SAE
SAE
SAE
SAE
SAE
SAE
SAE
SAE
SAE
SAE
SAE
SAE
SAE
SAE
SAE
SAE
SAE
SAE
SAE
SAE
SAE
SAE
SAE
SAE
SAE
SAE
SAE
SAE
SAE
SAE
SAE
SAE
SAE
SAE
SAE
SAE
SAE
SAE
SAE
SAE
SAE
SAE
SAE
SAE
SAE
SAE
SAE
SAE
SAE
SAE
SAE
SAE
SAE
SAE
SAE
SAE
SAE
SAE
SAE
SAE
SAE
SAE
SAE
SAE
SAE
SAE
SAE
SAE
SAE
SAE
SAE
SAE
SAE
SAE
SAE
SAE
SAE
SAE
SAE
SAE
SAE
SAE
SAE
SAE
SAE
SAE
SAE
SAE
SAE
SAE
SAE
SAE
SAE
SAE
SAE
SAE
SAE
SAE
SAE
SAE
SAE
SAE
SAE
SAE
SAE
SAE
SAE
SAE
SAE
SAE
SAE
SAE
SAE
SAE
SAE
SAE
SAE
SAE
SAE
SAE
SAE
SAE
SAE
SAE
SAE
SAE
SAE
SAE
SAE
SAE
SAE
SAE
SAE
SAE
SAE
SAE
SAE
SAE
SAE
SAE
SAE
SAE
SAE
SAE
SAE
SAE
SAE
SAE
SAE
SAE
SAE
SAE
SAE
SAE
SAE
SAE
SAE
SAE
SAE
SAE
SAE
SAE
SAE
SAE
SAE
SAE
SAE
SAE
SAE
SAE
SAE
SAE
SAE
SAE
SAE
SAE
SAE
SAE
SAE
SAE
SAE
SAE
SAE
SAE
SAE
SAE
SAE
SAE
SAE
SAE
SAE
SAE
SAE
SAE
SAE
SAE
SAE
SAE
SAE
SAE
SAE
SAE
SAE
SAE
SAE
SAE
SAE
SAE
SAE
SAE
SAE
SAE
SAE
SAE
SAE
SAE
SAE
SAE
SAE
SAE
SAE
SAE
SAE
SAE
SAE
SAE
SAE
SAE
SAE
SAE
SAE
SAE
SAE
SAE
SAE
SAE
SAE
SAE
SAE
SAE
SAE
SAE
SAE
SAE
SAE
SAE
SAE
SAE
SAE
SAE
SAE
SAE
SAE
SAE
SAE
SAE
SAE
SAE
SAE
SAE
SAE
SAE
SAE
SAE
SAE
SAE
SAE
SAE
SAE
SAE
SAE
SAE
SAE
SAE
SAE
SAE
SAE
SAE
SAE
SAE
SAE
SAE
SAE
SAE
SAE
SAE
SAE
SAE
SAE
SAE
SAE
SAE
SAE
SAE
SAE
SAE
SAE
SAE
SAE
SAE
SAE
SAE
SAE
SAE
SAE
SAE
SAE
SAE
SAE
SAE
SAE
SAE
SAE
SAE
SAE
SAE
SAE
SAE
SAE
SAE
SAE
SAE
SAE
SAE
SAE
SAE
SAE
SAE
SAE
SAE
SAE
SAE
SAE
SAE
SAE
SAE
SAE
SAE
SAE
SAE
SAE
SAE
SAE
SAE
SAE
SAE
SAE
SAE
SAE
SAE
SAE
SAE
SAE
SAE
SAE
SAE
SAE
SAE
SAE
SAE
SAE
SAE
SAE
SAE
SAE
SAE
SAE
SAE
SAE
SAE
SAE
SAE
SAE
SAE
SAE
SAE
SAE
SAE
SAE
SAE
SAE
SAE
SAE
SAE
SAE
SAE
SAE
SAE
SAE
SAE
SAE
SAE
SAE
SAE
SAE
SAE
SAE
SAE
SAE
SAE
SAE
SAE
SAE
SAE
SAE
SAE
SAE
SAE
SAE
SAE
SAE
SAE
SAE
SAE
SAE
SAE
SAE
SAE
SAE
SAE
SAE
SAE
SAE
SAE
SAE
SAE
SAE
SAE
SAE
SAE
SAE
SAE
SAE
SAE
SAE
SAE
SAE
SAE
SAE
SAE
SAE
SAE
SAE
SAE
SAE
SAE
SAE
SAE
SAE
SAE
SAE
SAE
SAE
SAE
SAE
SAE
SAE
SAE
SAE
SAE
SAE
SAE
SAE
SAE
SAE
SAE
SAE
SAE
SAE
SAE
SAE
SAE
SAE
SAE
SAE
SAE
SAE
SAE
SAE
SAE
SAE
SAE
SAE
SAE
SAE
SAE
SAE
SAE
SAE
SAE
SAE
SAE
SAE
SAE
SAE
SAE
SAE
SAE
SAE
SAE
SAE
SAE
SAE
SAE
SAE
SAE
SAE
SAE
SAE
SAE
SAE
SAE
SAE
SAE
SAE
SAE
SAE
SAE
SAE
SAE
SAE
SAE
SAE
SAE
SAE
SAE
SAE
SAE
SAE
SAE
SAE
SAE
SAE
SAE
SAE
SAE
SAE
SAE
SAE
SAE
SAE
SAE
SAE
SAE
SAE
SAE
SAE
SAE
SAE
SAE
SAE
SAE
SAE
SAE
SAE
SAE
SAE
SAE
SAE
SAE
SAE
SAE
SAE
SAE
SAE
SAE
SAE
SAE
SAE
SAE
SAE
SAE
SAE
SAE
SAE
SAE
SAE
SAE
SAE
SAE
SAE
SAE
SAE
SAE
SAE
SAE
SAE
SAE
SAE
SAE
SAE
SAE
SAE
SAE
SAE
SAE
SAE
SAE
SAE
SAE
SAE
SAE
SAE
SAE
SAE
SAE
SAE
SAE
SAE
SAE
SAE
SAE
SAE
SAE
SAE
SAE
SAE
SAE
SAE
SAE
SAE
SAE
SAE
SAE
SAE
SAE
SAE
SAE
SAE
SAE
SAE
SAE
SAE
SAE
SAE
SAE
SAE
SAE
SAE
SAE
SAE
SAE
SAE
SAE
SAE
SAE
SAE
SAE
SAE
SAE
SAE
SAE
SAE
SAE
SAE
SAE
SAE
SAE
SAE
SAE
SAE
SAE
SAE
SAE
SAE
SAE
SAE
SAE
SAE
SAE
SAE
SAE
SAE
SAE
SAE
SAE
SAE
SAE
SAE
SAE
SAE
SAE
SAE
SAE
SAE
SAE
SAE
SAE
SAE
SAE
SAE
SAE
SAE
SAE
SAE
SAE
SAE
SAE
SAE
SAE
SAE
SAE
SAE
SAE
SAE
SAE
SAE
SAE
SAE
SAE
SAE
SAE
SAE
SAE
SAE
SAE
SAE
SAE
SAE
SAE
SAE
SAE
SAE
SAE
SAE
SAE
SAE
SAE
SAE
SAE
SAE
SAE
SAE
SAE
SAE
SAE
SAE
SAE
SAE
SAE
SAE
SAE
SAE
SAE
SAE
SAE
SAE
SAE
SAE
SAE
SAE
SAE
SAE
SAE
SAE
SAE
SAE
SAE
SAE
SAE
SAE
SAE
SAE
SAE
SAE
SAE
SAE
SAE
SAE
SAE
SAE
SAE
SAE
SAE
SAE
SAE
SAE
SAE
SAE
SAE
SAE
SAE
SAE
SAE
SAE
SAE
SAE
SAE
SAE
SAE
SAE
SAE
SAE
SAE
SAE
SAE
SAE
SAE
SAE
SAE
SAE
SAE
SAE
SAE
SAE
SAE
SAE
SAE
SAE
SAE
SAE
SAE
SAE
SAE
SAE
SAE
SAE
SAE
SAE
SAE
SAE
SAE
SAE
SAE
SAE
SAE
SAE
SAE
SAE
SAE
SAE
SAE
SAE
SAE
SAE
SAE
SAE
SAE
SAE
SAE
SAE
SAE
SAE
SAE
SAE
SAE
SAE
SAE
SAE
SAE
SAE
SAE
SAE
SAE
SAE
SAE
SAE
SAE
SAE
SAE
SAE
SAE
SAE
SAE
SAE
SAE
SAE
SAE
SAE
SAE
SAE
SAE
SAE
SAE
SAE
SAE
SAE
SAE
SAE
SAE
SAE
SAE
SAE
SAE
SAE
SAE
SAE
SAE
SAE
SAE
SAE
SAE
SAE
SAE
SAE
SAE
SAE
SAE
SAE
SAE
SAE
SAE
SAE
SAE
SAE
SAE
SAE
SAE
SAE
SAE
SAE
SAE
SAE
SAE
SAE
SAE
SAE
SAE
SAE
SAE
SAE
SAE
SAE
SAE
SAE
SAE
SAE
SAE
SAE
SAE
SAE
SAE
SAE
SAE
SAE
SAE
SAE
SAE
SAE
SAE
SAE
SAE
SAE
SAE
SAE
SAE
SAE
SAE
SAE
SAE
SAE
SAE
SAE
SAE
SAE
SAE
SAE
SAE
SAE
SAE
SAE
SAE
SAE
SAE
SAE
SAE
SAE
SAE
SAE
SAE
SAE
SAE
SAE
SAE
SAE
SAE
SAE
SAE
SAE
SAE
SAE
SAE
SAE
SAE
SAE
SAE
SAE
SAE
SAE
SAE
SAE
SAE
SAE
SAE
SAE
SAE
SAE
SAE
SAE
SAE
SAE
SAE
SAE
SAE
SAE
SAE
SAE
SAE
SAE
SAE
SAE
SAE
SAE
SAE
SAE
SAE
SAE
SAE
SAE
SAE
SAE
SAE
SAE
SAE
SAE
SAE
SAE
SAE
SAE
SAE
SAE
SAE
SAE
SAE
SAE
SAE
SAE
SAE
SAE
SAE
SAE
SAE
SAE
SAE
SAE
SAE
SAE
SAE
SAE
SAE
SAE
SAE
SAE
SAE
SAE
SAE
SAE
SAE
SAE
SAE
SAE
SAE
SAE
SAE
SAE
SAE
SAE
SAE
SAE
SAE
SAE
SAE
SAE
SAE
SAE
SAE
SAE
SAE
SAE
SAE
SAE
SAE
SAE
SAE
SAE
SAE
SAE
SAE
SAE
SAE
SAE
SAE
SAE
SAE
SAE
SAE
SAE
SAE
SAE
SAE
SAE
SAE
SAE
SAE
SAE
SAE
SAE
SAE
SAE
SAE
SAE
SAE
SAE
SAE
SAE
SAE
SAE
SAE
SAE
SAE
SAE
SAE
SAE
SAE
SAE
SAE
SAE
SAE
SAE
SAE
SAE
SAE
SAE
SAE
SAE
SAE
SAE
SAE
SAE
SAE
SAE
SAE
SAE
SAE
SAE
SAE
SAE
SAE
SAE
SAE
SAE
SAE
SAE
SAE
SAE
SAE
SAE
SAE
SAE
SAE
SAE
SAE
SAE
SAE
SAE
SAE
SAE
SAE
SAE
SAE
SAE
SAE
SAE
SAE
SAE
SAE
SAE
SAE
SAE
SAE
SAE
SAE
SAE
SAE
SAE
SAE
SAE
SAE
SAE
SAE
SAE
SAE
SAE
SAE
SAE
SAE
SAE
SAE
SAE
SAE
SAE
SAE
SAE
SAE
SAE
SAE
SAE
SAE
SAE
SAE
SAE
SAE
SAE
SAE
SAE
SAE
SAE
SAE
SAE
SAE
SAE
SAE
SAE
SAE
SAE
SAE
SAE
SAE
SAE
SAE
SAE
SAE
SAE
SAE
SAE
SAE
SAE
SAE
SAE
SAE
SAE
SAE
SAE
SAE
SAE
SAE
SAE
SAE
SAE
SAE
SAE
SAE
SAE
SAE
SAE
SAE
SAE
SAE
SAE
SAE
SAE
SAE
SAE
SAE
SAE
SAE
SAE
SAE
SAE
SAE
SAE
SAE
SAE
SAE
SAE
SAE
SAE
SAE
SAE
SAE
SAE
SAE
SAE
SAE
SAE
SAE
SAE
SAE
SAE
SAE
SAE
SAE
SAE
SAE
SAE
SAE
SAE
SAE
SAE
SAE
SAE
SAE
SAE
SAE
SAE
SAE
SAE
SAE
SAE
SAE
SAE
SAE
SAE
SAE
SAE
SAE
SAE
SAE
SAE
SAE
SAE
SAE
SAE
SAE
SAE
SAE
SAE
SAE
SAE
SAE
SAE
SAE
SAE
SAE
SAE
SAE
SAE
SAE
SAE
SAE
SAE
SAE
SAE
SAE
SAE
SAE
SAE
SAE
SAE
SAE
SAE
SAE
SAE
SAE
SAE
SAE
SAE
SAE
SAE
SAE
SAE
SAE
SAE
SAE
SAE
SAE
SAE
SAE
SAE
SAE
SAE
SAE
SAE
SAE
SAE
SAE
SAE
SAE
SAE
SAE
SAE
SAE
SAE
SAE
SAE
SAE
SAE
SAE
SAE
SAE
SAE
SAE
SAE
SAE
SAE
SAE
SAE
SAE
SAE
SAE
SAE
SAE
SAE
SAE
SAE
SAE
SAE
SAE
SAE
SAE
SAE
SAE
SAE
SAE
SAE
SAE
SAE
SAE
SAE
SAE
SAE
SAE
SAE
SAE
SAE
SAE
SAE
SAE
SAE
SAE
SAE
SAE
SAE
SAE
SAE
SAE
SAE
SAE
SAE
SAE
SAE
SAE
SAE
SAE
SAE
SAE
SAE
SAE
SAE
SAE
SAE
SAE
SAE
SAE
SAE
SAE
SAE
SAE
SAE
SAE
SAE
SAE
SAE
SAE
SAE
SAE
SAE
SAE
SAE
SAE
SAE
SAE
SAE
SAE
SAE
SAE
SAE
SAE
SAE
SAE
SAE
SAE
SAE
SAE
SAE
SAE
SAE
SAE
SAE
SAE
SAE
SAE
SAE
SAE
SAE
SAE
SAE
SAE
SAE
SAE
SAE
SAE
SAE
SAE
SAE
SAE
SAE
SAE
SAE
SAE
SAE
SAE
SAE
SAE
SAE
SAE
SAE
SAE
SAE
SAE
SAE
SAE
SAE
SAE
SAE
SAE
SAE
SAE
SAE
SAE
SAE
SAE
SAE
SAE
SAE
SAE
SAE
SAE
SAE
SAE
SAE
SAE
SAE
SAE
SAE
SAE
SAE
SAE
SAE
SAE
SAE
SAE
SAE
SAE
SAE
SAE
SAE
SAE
SAE
SAE
SAE
SAE
SAE
SAE
SAE
SAE
SAE
SAE
SAE
SAE
SAE
SAE
SAE
SAE
SAE
SAE
SAE
SAE
SAE
SAE
SAE
SAE
SAE
SAE
SAE
SAE
SAE
SAE
SAE
SAE
SAE
SAE
SAE
SAE
SAE
SAE
SAE
SAE
SAE
SAE
SAE
SAE
SAE
SAE
SAE
SAE
SAE
SAE
SAE
SAE
SAE
SAE
SAE
SAE
SAE
SAE
SAE
SAE
SAE
SAE
SAE
SAE
SAE
SAE
SAE
SAE
SAE
SAE
SAE
SAE
SAE
SAE
SAE
SAE
SAE
SAE
SAE
SAE
SAE
SAE
SAE
SAE
SAE
SAE
SAE
SAE
SAE
SAE
SAE
SAE
SAE
SAE
SAE
SAE
SAE
SAE
SAE
SAE
SAE
SAE
SAE
SAE
SAE
SAE
SAE
SAE
SAE
SAE
SAE
SAE
SAE
SAE
SAE
SAE
SAE
SAE
SAE
SAE
SAE
SAE
SAE
SAE
SAE
SAE
SAE
SAE
SAE
SAE
SAE
SAE
SAE
SAE
SAE
SAE
SAE
SAE
SAE
SAE
SAE
SAE
SAE
SAE
SAE
SAE
SAE
SAE
SAE
SAE
SAE
SAE
SAE
SAE
SAE
SAE
SAE
SAE
SAE
SAE
SAE
SAE
SAE
SAE
SAE
SAE
SAE
SAE
SAE
SAE
SAE
SAE
SAE
SAE
SAE
SAE
SAE
SAE
SAE
SAE
SAE
SAE
SAE
SAE
SAE
SAE
SAE
SAE
SAE
SAE
SAE
SAE
SAE
SAE
SAE
SAE
SAE
SAE
SAE
SAE
SAE
SAE
SAE
SAE
SAE
SAE
SAE
SAE
SAE
SAE
SAE
SAE
SAE
SAE
SAE
SAE
SAE
SAE
SAE
SAE
SAE
SAE
SAE
SAE
SAE
SAE
SAE
SAE
SAE
SAE
SAE
SAE
SAE
SAE
SAE
SAE
SAE
SAE
SAE
SAE
SAE
SAE
SAE
SAE
SAE
SAE
SAE
SAE
SAE
SAE
SAE
SAE
SAE
SAE
SAE
SAE
SAE
SAE
SAE
SAE
SAE
SAE
SAE
SAE
SAE
SAE
SAE
SAE
SAE
SAE
SAE
SAE
SAE
SAE
SAE
SAE
SAE
SAE
SAE
SAE
SAE
SAE
SAE
SAE
SAE
SAE
SAE
SAE
SAE
SAE
SAE
SAE
SAE
SAE
SAE
SAE
SAE
SAE
SAE
SAE
SAE
SAE
SAE
SAE
SAE
SAE
SAE
SAE
SAE
SAE
SAE
SAE
SAE
SAE
SAE
SAE
SAE
SAE
SAE
SAE
SAE
SAE
SAE
SAE
SAE
SAE
SAE
SAE
SAE
SAE
SAE
SAE
SAE
SAE
SAE
SAE
SAE
SAE
SAE
SAE
SAE
SAE
SAE
SAE
SAE
SAE
SAE
SAE
SAE
SAE
SAE
SAE
SAE
SAE
SAE
SAE
SAE
SAE
SAE
SAE
SAE
SAE
SAE
SAE
SAE
SAE
SAE
SAE
SAE
SAE
SAE
SAE
SAE
SAE
SAE
SAE
SAE
SAE
SAE
SAE
SAE
SAE
SAE
SAE
SAE
SAE
SAE
SAE
SAE
SAE
SAE
SAE
SAE
SAE
SAE
SAE
SAE
SAE
SAE
SAE
SAE
SAE
SAE
SAE
SAE
SAE
SAE
SAE
SAE
SAE
SAE
SAE
SAE
SAE
SAE
SAE
SAE
SAE
SAE
SAE
SAE
SAE
SAE
SAE
SAE
SAE
SAE
SAE
SAE
SAE
SAE
SAE
SAE
SAE
SAE
SAE
SAE
SAE
SAE
SAE
SAE
SAE
SAE
SAE
SAE
SAE
SAE
SAE
SAE
SAE
SAE
SAE
SAE
SAE
SAE
SAE
SAE
SAE
SAE
SAE
SAE
SAE
SAE
SAE
SAE
SAE
SAE
SAE
SAE
SAE
SAE
SAE
SAE
SAE
SAE
SAE
SAE
SAE
SAE
SAE
SAE
SAE
SAE
SAE
SAE
SAE
SAE
SAE
SAE
SAE
SAE
SAE
SAE
SAE
SAE
SAE
SAE
SAE
SAE
SAE
SAE
SAE
SAE
SAE
SAE
SAE
SAE
SAE
SAE
SAE
SAE
SAE
SAE
SAE
SAE
SAE
SAE
SAE
SAE
SAE
SAE
SAE
SAE
SAE
SAE
SAE
SAE
SAE
SAE
SAE
SAE
SAE
SAE
SAE
SAE
SAE
SAE
SAE
SAE
SAE
SAE
SAE
SAE
SAE
SAE
SAE
SAE
SAE
SAE
SAE
SAE
SAE
SAE
SAE
SAE
SAE
SAE
SAE
SAE
SAE
SAE
SAE
SAE
SAE
SAE
SAE
SAE
SAE
SAE
SAE
SAE
SAE
SAE
SAE
SAE
SAE
SAE
SAE
SAE
SAE
SAE
SAE
SAE
SAE
SAE
SAE
SAE
SAE
SAE
SAE
SAE
SAE
SAE
SAE
SAE
SAE
SAE
SAE
SAE
SAE
SAE
SAE
SAE
SAE
SAE
SAE
SAE
SAE
SAE
SAE
SAE
SAE
SAE
SAE
SAE
SAE
SAE
SAE
SAE
SAE
SAE
SAE
SAE
SAE
SAE
SAE
SAE
SAE
SAE
SAE
SAE
SAE
SAE
SAE
SAE
SAE
SAE
SAE
SAE
SAE
SAE
SAE
SAE
SAE
SAE
SAE
SAE
SAE
SAE
SAE
SAE
SAE
SAE
SAE
SAE
SAE
SAE
SAE
SAE
SAE
SAE
SAE
SAE
SAE
SAE
SAE
SAE
SAE
SAE
SAE
SAE
SAE
SAE
SAE
SAE
SAE
SAE
SAE
SAE
SAE
SAE
SAE
SAE
SAE
SAE
SAE
SAE
SAE
SAE
SAE
SAE
SAE
SAE
SAE
SAE
SAE
SAE
SAE
SAE
SAE
SAE
SAE
SAE
SAE
SAE
SAE
SAE
SAE
SAE
SAE
SAE
SAE
SAE
SAE
SAE
SAE
SAE
SAE
SAE
SAE
SAE
SAE
SAE
SAE
SAE
SAE
SAE
SAE
SAE
SAE
SAE
SAE
SAE
SAE
SAE
SAE
SAE
SAE
SAE
SAE
SAE
SAE
SAE
SAE
SAE
SAE
SAE
SAE
SAE
SAE
SAE
SAE
SAE
SAE
SAE
SAE
SAE
SAE
SAE
SAE
SAE
SAE
SAE
SAE
SAE
SAE
SAE
SAE
SAE
SAE
SAE
SAE
SAE
SAE
SAE
SAE
SAE
SAE
SAE
SAE
SAE
SAE
SAE
SAE
SAE
SAE
SAE
SAE
SAE
SAE
SAE
SAE
SAE
SAE
SAE
SAE
SAE
SAE
SAE
SAE
SAE
SAE
SAE
SAE
SAE
SAE
SAE
SAE
SAE
SAE
SAE
SAE
SAE
SAE
SAE
SAE
SAE
SAE
SAE
SAE
SAE
SAE
SAE
SAE
SAE
SAE
SAE
SAE
SAE
SAE
SAE
SAE
SAE
SAE
SAE
SAE
SAE
SAE
SAE
SAE
SAE
SAE
SAE
SAE
SAE
SAE
SAE
SAE
SAE
SAE
SAE
SAE
SAE
SAE
SAE
SAE
SAE
SAE
SAE
SAE
SAE
SAE
SAE
SAE
SAE
SAE
SAE
SAE
SAE
SAE
SAE
SAE
SAE
SAE
SAE
SAE
SAE
SAE
SAE
SAE
SAE
SAE
SAE
SAE
SAE
SAE
SAE
SAE
SAE
SAE
SAE
SAE
SAE
SAE
SAE
SAE
SAE
SAE
SAE
SAE
SAE
SAE
SAE
SAE
SAE
SAE
SAE
SAE
SAE
SAE
SAE
SAE
SAE
SAE
SAE
SAE
SAE
SAE
SAE
SAE
SAE
SAE
SAE
SAE
SAE
SAE
SAE
SAE
SAE
SAE
SAE
SAE
SAE
SAE
SAE
SAE
SAE
SAE
SAE
SAE
SAE
SAE
SAE
SAE
SAE
SAE
SAE
SAE
SAE
SAE
SAE
SAE
SAE
SAE
SAE
SAE
SAE
SAE
SAE
SAE
SAE
SAE
SAE
SAE
SAE
SAE
SAE
SAE
SAE
SAE
SAE
SAE
SAE
SAE
SAE
SAE
SAE
SAE
SAE
SAE
SAE
SAE
SAE
SAE
SAE
SAE
SAE
SAE
SAE
SAE
SAE
SAE
SAE
SAE
SAE
SAE
SAE
SAE
SAE
SAE
SAE
SAE
SAE
SAE
SAE
SAE
SAE
SAE
SAE
SAE
SAE
SAE
SAE
SAE
SAE
SAE
SAE
SAE
SAE
SAE
SAE
SAE
SAE
SAE
SAE
SAE
SAE
SAE
SAE
SAE
SAE
SAE
SAE
SAE
SAE
SAE
SAE
SAE
SAE
SAE
SAE
SAE
SAE
SAE
SAE
SAE
SAE
SAE
SAE
SAE
SAE
SAE
SAE
SAE
SAE
SAE
SAE
SAE
SAE
SAE
SAE
SAE
SAE
SAE
SAE
SAE
SAE
SAE
SAE
SAE
SAE
SAE
SAE
SAE
SAE
SAE
SAE
SAE
SAE
SAE
SAE
SAE
SAE
SAE
SAE
SAE
SAE
SAE
SAE
SAE
SAE
SAE
SAE
SAE
SAE
SAE
SAE
SAE
SAE
SAE
SAE
SAE
SAE
SAE
SAE
SAE
SAE
SAE
SAE
SAE
SAE
SAE
SAE
SAE
SAE
SAE
SAE
SAE
SAE
SAE
SAE
SAE
SAE
SAE
SAE
SAE
SAE
SAE
SAE
SAE
SAE
SAE
SAE
SAE
SAE
SAE
SAE
SAE
SAE
SAE
SAE
SAE
SAE
SAE
SAE
SAE
SAE
SAE
SAE
SAE
SAE
SAE
SAE
SAE
SAE
SAE
SAE
SAE
SAE
SAE
SAE
SAE
SAE
SAE
SAE
SAE
SAE
SAE
SAE
SAE
SAE
SAE
SAE
SAE
SAE
SAE
SAE
SAE
SAE
SAE
SAE
SAE
SAE
SAE
SAE
SAE
SAE
SAE
SAE
SAE
SAE
SAE
SAE
SAE
SAE
SAE
SAE
SAE
SAE
SAE
SAE
SAE
SAE
SAE
SAE
SAE
SAE
SAE
SAE
SAE
SAE
SAE
SAE
SAE
SAE
SAE
SAE
SAE
SAE
SAE
SAE
SAE
SAE
SAE
SAE
SAE
SAE
SAE
SAE
SAE
SAE
SAE
SAE
SAE
SAE
SAE
SAE
SAE
SAE
SAE
SAE
SAE
SAE
SAE
SAE
SAE
SAE
SAE
SAE
SAE
SAE
SAE
SAE
SAE
SAE
SAE
SAE
SAE
SAE
SAE
SAE
SAE
SAE
SAE
SAE
SAE
SAE
SAE
SAE
SAE
SAE
SAE
SAE
SAE
SAE
SAE
SAE
SAE
SAE
SAE
SAE
SAE
SAE
SAE
SAE
SAE
SAE
SAE
SAE
SAE
SAE
SAE
SAE
SAE
SAE
SAE
SAE
SAE
SAE
SAE
SAE
SAE
SAE
SAE
SAE
SAE
SAE
SAE
SAE
SAE
SAE
SAE
SAE
SAE
SAE
SAE
SAE
SAE
SAE
SAE
SAE
SAE
SAE
SAE
SAE
SAE
SAE
SAE
SAE
SAE
SAE
SAE
SAE
SAE
SAE
SAE
SAE
SAE
SAE
SAE
SAE
SAE
SAE
SAE
SAE
SAE
SAE
SAE
SAE
SAE
SAE
SAE
SAE
SAE
SAE
SAE
SAE
SAE
SAE
SAE
SAE
SAE
SAE
SAE
SAE
SAE
SAE
SAE
SAE
SAE
SAE
SAE
SAE
SAE
SAE
SAE
SAE
SAE
SAE
SAE
SAE
SAE
SAE
SAE
SAE
SAE
SAE
SAE
SAE
SAE
SAE
SAE
SAE
SAE
SAE
SAE
SAE
SAE
SAE
SAE
SAE
SAE
SAE
SAE
SAE
SAE
SAE
SAE
SAE
SAE
SAE
SAE
SAE
SAE
SAE
SAE
SAE
SAE
SAE
SAE
SAE
SAE
SAE
SAE
SAE
SAE
SAE
SAE
SAE
SAE
SAE
SAE
SAE
SAE
SAE
SAE
SAE
SAE
SAE
SAE
SAE
SAE
SAE
SAE
SAE
SAE
SAE
SAE
SAE
SAE
SAE
SAE
SAE
SAE
SAE
SAE
SAE
SAE
SAE
SAE
SAE
SAE
SAE
SAE
SAE
SAE
SAE
SAE
SAE
SAE
SAE
SAE
SAE
SAE
SAE
SAE
SAE
SAE
SAE
SAE
SAE
SAE
SAE
SAE
SAE
SAE
SAE
SAE
SAE
SAE
SAE
SAE
SAE
SAE
SAE
SAE
SAE
SAE
SAE
SAE
SAE
SAE
SAE
SAE
SAE
SAE
SAE
SAE
SAE
SAE
SAE
SAE
SAE
SAE
SAE
SAE
SAE
SAE
SAE
SAE
SAE
SAE
SAE
SAE
SAE
SAE
SAE
SAE
SAE
SAE
SAE
SAE
SAE
SAE
SAE
SAE
SAE
SAE
SAE
SAE
SAE
SAE
SAE
SAE
SAE
SAE
SAE
SAE
SAE
SAE
SAE
SAE
SAE
SAE
SAE
SAE
SAE
SAE
SAE
SAE
SAE
SAE
SAE
SAE
SAE
SAE
SAE
SAE
SAE
SAE
SAE
SAE
SAE
SAE
SAE
SAE
SAE
SAE
SAE
SAE
SAE
SAE
SAE
SAE
SAE
SAE
SAE
SAE
SAE
SAE
SAE
SAE
SAE
SAE
SAE
SAE
SAE
SAE
SAE
SAE
SAE
SAE
SAE
SAE
SAE
SAE
SAE
SAE
SAE
SAE
SAE
SAE
SAE
SAE
SAE
SAE
SAE
SAE
SAE
SAE
SAE
SAE
SAE
SAE
SAE
SAE
SAE
SAE
SAE
SAE
SAE
SAE
SAE
SAE
SAE
SAE
SAE
SAE
SAE
SAE
SAE
SAE
SAE
SAE
SAE
SAE
SAE
SAE
SAE
SAE
SAE
SAE
SAE
SAE
SAE
SAE
SAE
SAE
SAE
SAE
SAE
SAE
SAE
SAE
SAE
SAE
SAE
SAE
SAE
SAE
SAE
SAE
SAE
SAE
SAE
SAE
SAE
SAE
SAE
SAE
SAE
SAE
SAE
SAE
SAE
SAE
SAE
SAE
SAE
SAE
SAE
SAE
SAE
SAE
SAE
SAE
SAE
SAE
SAE
SAE
SAE
SAE
SAE
SAE
SAE
SAE
SAE
SAE
SAE
SAE
SAE
SAE
SAE
SAE
SAE
SAE
SAE
SAE
SAE
SAE
SAE
SAE
SAE
SAE
SAE
SAE
SAE
SAE
SAE
SAE
SAE
SAE
SAE
SAE
SAE
SAE
SAE
SAE
SAE
SAE
SAE
SAE
SAE
SAE
SAE
SAE
SAE
SAE
SAE
SAE
SAE
SAE
SAE
SAE
SAE
SAE
SAE
SAE
SAE
SAE
SAE
SAE
SAE
SAE
SAE
SAE
SAE
SAE
SAE
SAE
SAE
SAE
SAE
SAE
SAE
SAE
SAE
SAE
SAE
SAE
SAE
SAE
SAE
SAE
SAE
SAE
SAE
SAE
SAE
SAE
SAE
SAE
SAE
SAE
SAE
SAE
SAE
SAE
SAE
SAE
SAE
SAE
SAE
SAE
SAE
SAE
SAE
SAE
SAE
SAE
SAE
SAE
SAE
SAE
SAE
SAE
SAE
SAE
SAE
SAE
SAE
SAE
SAE
SAE
SAE
SAE
SAE
SAE
SAE
SAE
SAE
SAE
SAE
SAE
SAE
SAE
SAE
SAE
SAE
SAE
SAE
SAE
SAE
SAE
SAE
SAE
SAE
SAE
SAE
SAE
SAE
SAE
SAE
SAE
SAE
SAE
SAE
SAE
SAE
SAE
SAE
SAE
SAE
SAE
SAE
SAE
SAE
SAE
SAE
SAE
SAE
SAE
SAE
SAE
SAE
SAE
SAE
SAE
SAE
SAE
SAE
SAE
SAE
SAE
SAE
SAE
SAE
SAE
SAE
SAE
SAE
SAE
SAE
SAE
SAE
SAE
SAE
SAE
SAE
SAE
SAE
SAE
SAE
SAE
SAE
SAE
SAE
SAE
SAE
SAE
SAE
SAE
SAE
SAE
SAE
SAE
SAE
SAE
SAE
SAE
SAE
SAE
SAE
SAE
SAE
SAE
SAE
SAE
SAE
SAE
SAE
SAE
SAE
SAE
SAE
SAE
SAE
SAE
SAE
SAE
SAE
SAE
SAE
SAE
SAE
SAE
SAE
SAE
SAE
SAE
SAE
SAE
SAE
SAE
SAE
SAE
SAE
SAE
SAE
SAE
SAE
SAE
SAE
SAE
SAE
SAE
SAE
SAE
SAE
SAE
SAE
SAE
SAE
SAE
SAE
SAE
SAE
SAE
SAE
SAE
SAE
SAE
SAE
SAE
SAE
SAE
SAE
SAE
SAE
SAE
SAE
SAE
SAE
SAE
SAE
SAE
SAE
SAE
SAE
SAE
SAE
SAE
SAE
SAE
SAE
SAE
SAE
SAE
SAE
SAE
SAE
SAE
SAE
SAE
SAE
SAE
SAE
SAE
SAE
SAE
SAE
SAE
SAE
SAE
SAE
SAE
SAE
SAE
SAE
SAE
SAE
SAE
SAE
SAE
SAE
SAE
SAE
SAE
SAE
SAE
SAE
SAE
SAE
SAE
SAE
SAE
SAE
SAE
SAE
SAE
SAE
SAE
SAE
SAE
SAE
SAE
SAE
SAE
SAE
SAE
SAE
SAE
SAE
SAE
SAE
SAE
SAE
SAE
SAE
SAE
SAE
SAE
SAE
SAE
SAE
SAE
SAE
SAE
SAE
SAE
SAE
SAE
SAE
SAE
SAE
SAE
SAE
SAE
SAE
SAE
SAE
SAE
SAE
SAE
SAE
SAE
SAE
SAE
SAE
SAE
SAE
SAE
SAE
SAE
SAE
SAE
SAE
SAE
SAE
SAE
SAE
SAE
SAE
SAE
SAE
SAE
SAE
SAE
SAE
SAE
SAE
SAE
SAE
SAE
SAE
SAE
SAE
SAE
SAE
SAE
SAE
SAE
SAE
SAE
SAE
SAE
SAE
SAE
SAE
SAE
SAE
SAE
SAE
SAE
SAE
SAE
SAE
SAE
SAE
SAE
SAE
SAE
SAE
SAE
SAE
SAE
SAE
SAE
SAE
SAE
SAE
SAE
SAE
SAE
SAE
SAE
SAE
SAE
SAE
SAE
SAE
SAE
SAE
SAE
SAE
SAE
SAE
SAE
SAE
SAE
SAE
SAE
SAE
SAE
SAE
SAE
SAE
SAE
SAE
SAE
SAE
SAE
SAE
SAE
SAE
SAE
SAE
SAE
SAE
SAE
SAE
SAE
SAE
SAE
SAE
SAE
SAE
SAE
SAE
SAE
SAE
SAE
SAE
SAE
SAE
SAE
SAE
SAE
SAE
SAE
SAE
SAE
SAE
SAE
SAE
SAE
SAE
SAE
SAE
SAE
SAE
SAE
SAE
SAE
SAE
SAE
SAE
SAE
SAE
SAE
SAE
SAE
SAE
SAE
SAE
SAE
SAE
SAE
SAE
SAE
SAE
SAE
SAE
SAE
SAE
SAE
SAE
SAE
SAE
SAE
SAE
SAE
SAE
SAE
SAE
SAE
SAE
SAE
SAE
SAE
SAE
SAE
SAE
SAE
SAE
SAE
SAE
SAE
SAE
SAE
SAE
SAE
SAE
SAE
SAE
SAE
SAE
SAE
SAE
SAE
SAE
SAE
SAE
SAE
SAE
SAE
SAE
SAE
SAE
SAE
SAE
SAE
SAE
SAE
SAE
SAE
SAE
SAE
SAE
SAE
SAE
SAE
SAE
SAE
SAE
SAE
SAE
SAE
SAE
SAE
SAE
SAE
SAE
SAE
SAE
SAE
SAE
SAE
SAE
SAE
SAE
SAE
SAE
SAE
SAE
SAE
SAE
SAE
SAE
SAE
SAE
SAE
SAE
SAE
SAE
SAE
SAE
SAE
SAE
SAE
SAE
SAE
SAE
SAE
SAE
SAE
SAE
SAE
SAE
SAE
SAE
SAE
SAE
SAE
SAE
SAE
SAE
SAE
SAE
SAE
SAE
SAE
SAE
SAE
SAE
SAE
SAE
SAE
SAE
SAE
SAE
SAE
SAE
SAE
SAE
SAE
SAE
SAE
SAE
SAE
SAE
SAE
SAE
SAE
SAE
SAE
SAE
SAE
SAE
SAE
SAE
SAE
SAE
SAE
SAE
SAE
SAE
SAE
SAE
SAE
SAE
SAE
SAE
SAE
SAE
SAE
SAE
SAE
SAE
SAE
SAE
SAE
SAE
SAE
SAE
SAE
SAE
SAE
SAE
SAE
SAE
SAE
SAE
SAE
SAE
SAE
SAE
SAE
SAE
SAE
SAE
SAE
SAE
SAE
SAE
SAE
SAE
SAE
SAE
SAE
SAE
SAE
SAE
SAE
SAE
SAE
SAE
SAE
SAE
SAE
SAE
SAE
SAE
SAE
SAE
SAE
SAE
SAE
SAE
SAE
SAE
SAE
SAE
SAE
SAE
SAE
SAE
SAE
SAE
SAE
SAE
SAE
SAE
SAE
SAE
SAE
SAE
SAE
SAE
SAE
SAE
SAE
SAE
SAE
SAE
SAE
SAE
SAE
SAE
SAE
SAE
SAE
SAE
SAE
SAE
SAE
SAE
SAE
SAE
SAE
SAE
SAE
SAE
SAE
SAE
SAE
SAE
SAE
SAE
SAE
SAE
SAE
SAE
SAE
SAE
SAE
SAE
SAE
SAE
SAE
SAE
SAE
SAE
SAE
SAE
SAE
SAE
SAE
SAE
SAE
SAE
SAE
SAE
SAE
SAE
SAE
SAE
SAE
SAE
SAE
SAE
SAE
SAE
SAE
SAE
SAE
SAE
SAE
SAE
SAE
SAE
SAE
SAE
SAE
SAE
SAE
SAE
SAE
SAE
SAE
SAE
SAE
SAE
SAE
SAE
SAE
SAE
SAE
SAE
SAE
SAE
SAE
SAE
SAE
SAE
SAE
SAE
SAE
SAE
SAE
SAE
SAE
SAE
SAE
SAE
SAE
SAE
SAE
SAE
SAE
SAE
SAE
SAE
SAE
SAE
SAE
SAE
SAE
SAE
SAE
SAE
SAE
SAE
SAE
SAE
SAE
SAE
SAE
SAE
SAE
SAE
SAE
SAE
SAE
SAE
SAE
SAE
SAE
SAE
SAE
SAE
SAE
SAE
SAE
SAE
SAE
SAE
SAE
SAE
SAE
SAE
SAE
SAE
SAE
SAE
SAE
SAE
SAE
SAE
SAE
SAE
SAE
SAE
SAE
SAE
SAE
SAE
SAE
SAE
SAE
SAE
SAE
SAE
SAE
SAE
SAE
SAE
SAE
SAE
SAE
SAE
SAE
SAE
SAE
SAE
SAE
SAE
SAE
SAE
SAE
SAE
SAE
SAE
SAE
SAE
SAE
SAE
SAE
SAE
SAE
SAE
SAE
SAE
SAE
SAE
SAE
SAE
SAE
SAE
SAE
SAE
SAE
SAE
SAE
SAE
SAE
SAE
SAE
SAE
SAE
SAE
SAE
SAE
SAE
SAE
SAE
SAE
SAE
SAE
SAE
SAE
SAE
SAE
SAE
SAE
SAE
SAE
SAE
SAE
SAE
SAE
SAE
SAE
SAE
SAE
SAE
SAE
SAE
SAE
SAE
SAE
SAE
SAE
SAE
SAE
SAE
SAE
SAE
SAE
SAE
SAE
SAE
SAE
SAE
SAE
SAE
SAE
SAE
SAE
SAE
SAE
SAE
SAE
SAE
SAE
SAE
SAE
SAE
SAE
SAE
SAE
SAE
SAE
SAE
SAE
SAE
SAE
SAE
SAE
SAE
SAE
SAE
SAE
SAE
SAE
SAE
SAE
SAE
SAE
SAE
SAE
SAE
SAE
SAE
SAE
SAE
SAE
SAE
SAE
SAE
SAE
SAE
SAE
SAE
SAE
SAE
SAE
SAE
SAE
SAE
SAE
SAE
SAE
SAE
SAE
SAE
SAE
SAE
SAE
SAE
SAE
SAE
SAE
SAE
SAE
SAE
SAE
SAE
SAE
SAE
SAE
SAE
SAE
SAE
SAE
SAE
SAE
SAE
SAE
SAE
SAE
SAE
SAE
SAE
SAE
SAE
SAE
SAE
SAE
SAE
SAE
SAE
SAE
SAE
SAE
SAE
SAE
SAE
SAE
SAE
SAE
SAE
SAE
SAE
SAE
SAE
SAE
SAE
SAE
SAE
SAE
SAE
SAE
SAE
SAE
SAE
SAE
SAE
SAE
SAE
SAE
SAE
SAE
SAE
SAE
SAE
SAE
SAE
SAE
SAE
SAE
SAE
SAE
SAE
SAE
SAE
SAE
SAE
SAE
SAE
SAE
SAE
SAE
SAE
SAE
SAE
SAE
SAE
SAE
SAE
SAE
SAE
SAE
SAE
SAE
SAE
SAE
SAE
SAE
SAE
SAE
SAE
SAE
SAE
SAE
SAE
SAE
SAE
SAE
SAE
SAE
SAE
SAE
SAE
SAE
SAE
SAE
SAE
SAE
SAE
SAE
SAE
SAE
SAE
SAE
SAE
SAE
SAE
SAE
SAE
SAE
SAE
SAE
SAE
SAE
SAE
SAE
SAE
SAE
SAE
SAE
SAE
SAE
SAE
SAE
SAE
SAE
SAE
SAE
SAE
SAE
SAE
SAE
SAE
SAE
SAE
SAE
SAE
SAE
SAE
SAE
SAE
SAE
SAE
SAE
SAE
SAE
SAE
SAE
SAE
SAE
SAE
SAE
SAE
SAE
SAE
SAE
SAE
SAE
SAE
SAE
SAE
SAE
SAE
SAE
SAE
SAE
SAE
SAE
SAE
SAE
SAE
SAE
SAE
SAE
SAE
SAE
SAE
SAE
SAE
SAE
SAE
SAE
SAE
SAE
SAE
SAE
SAE
SAE
SAE
SAE
SAE
SAE
SAE
SAE
SAE
SAE
SAE
SAE
SAE
SAE
SAE
SAE
SAE
SAE
SAE
SAE
SAE
SAE
SAE
SAE
SAE
SAE
SAE
SAE
SAE
SAE
SAE
SAE
SAE
SAE
SAE
SAE
SAE
SAE
SAE
SAE
SAE
SAE
SAE
SAE
SAE
SAE
SAE
SAE
SAE
SAE
SAE
SAE
SAE
SAE
SAE
SAE
SAE
SAE
SAE
SAE
SAE
SAE
SAE
SAE
SAE
SAE
SAE
SAE
SAE
SAE
SAE
SAE
SAE
SAE
SAE
SAE
SAE
SAE
SAE
SAE
SAE
SAE
SAE
SAE
SAE
SAE
SAE
SAE
SAE
SAE
SAE
SAE
SAE
SAE
SAE
SAE
SAE
SAE
SAE
SAE
SAE
SAE
SAE
SAE
SAE
SAE
SAE
SAE
SAE
SAE
SAE
SAE
SAE
SAE
SAE
SAE
SAE
SAE
SAE
SAE
SAE
SAE
SAE
SAE
SAE
SAE
SAE
SAE
SAE
SAE
SAE
SAE
SAE
SAE
SAE
SAE
SAE
SAE
SAE
SAE
SAE
SAE
SAE
SAE
SAE
SAE
SAE
SAE
SAE
SAE
SAE
SAE
SAE
SAE
SAE
SAE
SAE
SAE
SAE
SAE
SAE
SAE
SAE
SAE
SAE
SAE
SAE
SAE
SAE
SAE
SAE
SAE
SAE
SAE
SAE
SAE
SAE
SAE
SAE
SAE
SAE
SAE
SAE
SAE
SAE
SAE
SAE
SAE
SAE
SAE
SAE
SAE
SAE
SAE
SAE
SAE
SAE
SAE
SAE
SAE
SAE
SAE
SAE
SAE
SAE
SAE
SAE
SAE
SAE
SAE
SAE
SAE
SAE
SAE
SAE
SAE
SAE
SAE
SAE
SAE
SAE
SAE
SAE
SAE
SAE
SAE
SAE
SAE
SAE
SAE
SAE
SAE
SAE
SAE
SAE
SAE
SAE
SAE
SAE
SAE
SAE
SAE
SAE
SAE
SAE
SAE
SAE
SAE
SAE
SAE
SAE
SAE
SAE
SAE
SAE
SAE
SAE
SAE
SAE
SAE
SAE
SAE
SAE
SAE
SAE
SAE
SAE
SAE
SAE
SAE
SAE
SAE
SAE
SAE
SAE
SAE
SAE
SAE
SAE
SAE
SAE
SAE
SAE
SAE
SAE
SAE
SAE
SAE
SAE
SAE
SAE
SAE
SAE
SAE
SAE
SAE
SAE
SAE
SAE
SAE
SAE
SAE
SAE
SAE
SAE
SAE
SAE
SAE
SAE
SAE
SAE
SAE
SAE
SAE
SAE
SAE
SAE
SAE
SAE
SAE
SAE
SAE
SAE
SAE
SAE
SAE
SAE
SAE
SAE
SAE
SAE
SAE
SAE
SAE
SAE
SAE
SAE
SAE
SAE
SAE
SAE
SAE
SAE
SAE
SAE
SAE
SAE
SAE
SAE
SAE
SAE
SAE
SAE
SAE
SAE
SAE
SAE
SAE
SAE
SAE
SAE
SAE
SAE
SAE
SAE
SAE
SAE
SAE
SAE
SAE
SAE
SAE
SAE
SAE
SAE
SAE
SAE
SAE
SAE
SAE
SAE
SAE
SAE
SAE
SAE
SAE
SAE
SAE
SAE
SAE
SAE
SAE
SAE
SAE
SAE
SAE
SAE
SAE
SAE
SAE
SAE
SAE
SAE
SAE
SAE
SAE
SAE
SAE
SAE
SAE
SAE
SAE
SAE
SAE
SAE
SAE
SAE
SAE
SAE
SAE
SAE
SAE
SAE
SAE
SAE
SAE
SAE
SAE
SAE
SAE
SAE
SAE
SAE
SAE
SAE
SAE
SAE
SAE
SAE
SAE
SAE
SAE
SAE
SAE
SAE
SAE
SAE
SAE
SAE
SAE
SAE
SAE
SAE
SAE
SAE
SAE
SAE
SAE
SAE
SAE
SAE
SAE
SAE
SAE
SAE
SAE
SAE
SAE
SAE
SAE
SAE
SAE
SAE
SAE
SAE
SAE
SAE
SAE
SAE
SAE
SAE
SAE
SAE
SAE
SAE
SAE
SAE
SAE
SAE
SAE
SAE
SAE
SAE
SAE
SAE
SAE
SAE
SAE
SAE
SAE
SAE
SAE
SAE
SAE
SAE
SAE
SAE
SAE
SAE
SAE
SAE
SAE
SAE
SAE
SAE
SAE
SAE
SAE
SAE
SAE
SAE
SAE
SAE
SAE
SAE
SAE
SAE
SAE
SAE
SAE
SAE
SAE
SAE
SAE
SAE
SAE
SAE
SAE
SAE
SAE
SAE
SAE
SAE
SAE
SAE
SAE
SAE
SAE
SAE
SAE
SAE
SAE
SAE
SAE
SAE
SAE
SAE
SAE
SAE
SAE
SAE
SAE
SAE
SAE
SAE
SAE
SAE
SAE
SAE
SAE
SAE
SAE
SAE
SAE
SAE
SAE
SAE
SAE
SAE
SAE
SAE
SAE
SAE
SAE
SAE
SAE
SAE
SAE
SAE
SAE
SAE
SAE
SAE
SAE
SAE
SAE
SAE
SAE
SAE
SAE
SAE
SAE
SAE
SAE
SAE
SAE
SAE
SAE
SAE
SAE
SAE
SAE
SAE
SAE
SAE
SAE
SAE
SAE
SAE
SAE
SAE
SAE
SAE
SAE
SAE
SAE
SAE
SAE
SAE
SAE
SAE
SAE
SAE
SAE
SAE
SAE
SAE
SAE
SAE
SAE
SAE
SAE
SAE
SAE
SAE
SAE
SAE
SAE
SAE
SAE
SAE
SAE
SAE
SAE
SAE
SAE
SAE
SAE
SAE
SAE
SAE
SAE
SAE
SAE
SAE
SAE
SAE
SAE
SAE
SAE
SAE
SAE
SAE
SAE
SAE
SAE
SAE
SAE
SAE
SAE
SAE
SAE
SAE
SAE
SAE
SAE
SAE
SAE
SAE
SAE
SAE
SAE
SAE
SAE
SAE
SAE
SAE
SAE
SAE
SAE
SAE
SAE
SAE
SAE
SAE
SAE
SAE
SAE
SAE
SAE
SAE
SAE
SAE
SAE
SAE
SAE
SAE
SAE
SAE
SAE
SAE
SAE
SAE
SAE
SAE
SAE
SAE
SAE
SAE
SAE
SAE
SAE
SAE
SAE
SAE
SAE
SAE
SAE
SAE
SAE
SAE
SAE
SAE
SAE
SAE
SAE
SAE
SAE
SAE
SAE
SAE
SAE
SAE
SAE
SAE
SAE
SAE
SAE
SAE
SAE
SAE
SAE
SAE
SAE
SAE
SAE
SAE
SAE
SAE
SAE
SAE
SAE
SAE
SAE
SAE
SAE
SAE
SAE
SAE
SAE
SAE
SAE
SAE
SAE
SAE
SAE
SAE
SAE
SAE
SAE
SAE
SAE
SAE
SAE
SAE
SAE
SAE
SAE
SAE
SAE
SAE
SAE
SAE
SAE
SAE
SAE
SAE
SAE
SAE
SAE
SAE
SAE
SAE
SAE
SAE
SAE
SAE
SAE
SAE
SAE
SAE
SAE
SAE
SAE
SAE
SAE
SAE
SAE
SAE
SAE
SAE
SAE
SAE
SAE
SAE
SAE
SAE
SAE
SAE
SAE
SAE
SAE
SAE
SAE
SAE
SAE
SAE
SAE
SAE
SAE
SAE
SAE
SAE
SAE
SAE
SAE
SAE
SAE
SAE
SAE
SAE
SAE
SAE
SAE
SAE
SAE
SAE
SAE
SAE
SAE
SAE
SAE
SAE
SAE
SAE
SAE
SAE
SAE
SAE
SAE
SAE
SAE
SAE
SAE
SAE
SAE
SAE
SAE
SAE
SAE
SAE
SAE
SAE
SAE
SAE
SAE
SAE
SAE
SAE
SAE
SAE
SAE
SAE
SAE
SAE
SAE
SAE
SAE
SAE
SAE
SAE
SAE
SAE
SAE
SAE
SAE
SAE
SAE
SAE
SAE
SAE
SAE
SAE
SAE
SAE
SAE
SAE
SAE
SAE
SAE
SAE
SAE
SAE
SAE
SAE
SAE
SAE
SAE
SAE
SAE
SAE
SAE
SAE
SAE
SAE
SAE
SAE
SAE
SAE
SAE
SAE
SAE
SAE
SAE
SAE
SAE
SAE
SAE
SAE
SAE
SAE
SAE
SAE
SAE
SAE
SAE
SAE
SAE
SAE
SAE
SAE
SAE
SAE
SAE
SAE
SAE
SAE
SAE
SAE
SAE
SAE
SAE
SAE
SAE
SAE
SAE
SAE
SAE
SAE
SAE
SAE
SAE
SAE
SAE
SAE
SAE
SAE
SAE
SAE
SAE
SAE
SAE
SAE
SAE
SAE
SAE
SAE
SAE
SAE
SAE
SAE
SAE
SAE
SAE
SAE
SAE
SAE
SAE
SAE
SAE
SAE
SAE
SAE
SAE
SAE
SAE
SAE
SAE
SAE
SAE
SAE
SAE
SAE
SAE
SAE
SAE
SAE
SAE
SAE
SAE
SAE
SAE
SAE
SAE
SAE
SAE
SAE
SAE
SAE
SAE
SAE
SAE
SAE
SAE
SAE
SAE
SAE
SAE
SAE
SAE
SAE
SAE
SAE
SAE
SAE
SAE
SAE
SAE
SAE
SAE
SAE
SAE
SAE
SAE
SAE
SAE
SAE
SAE
SAE
SAE
SAE
SAE
SAE
SAE
SAE
SAE
SAE
SAE
SAE
SAE
SAE
SAE
SAE
SAE
SAE
SAE
SAE
SAE
SAE
SAE
SAE
SAE
SAE
SAE
SAE
SAE
SAE
SAE
SAE
SAE
SAE
SAE
SAE
SAE
SAE
SAE
SAE
SAE
SAE
SAE
SAE
SAE
SAE
SAE
SAE
SAE
SAE
SAE
SAE
SAE
SAE
SAE
SAE
SAE
SAE
SAE
SAE
SAE
SAE
SAE
SAE
SAE
SAE
SAE
SAE
SAE
SAE
SAE
SAE
SAE
SAE
SAE
SAE
SAE
SAE
SAE
SAE
SAE
SAE
SAE
SAE
SAE
SAE
SAE
SAE
SAE
SAE
SAE
SAE
SAE
SAE
SAE
SAE
SAE
SAE
SAE
SAE
SAE
SAE
SAE
SAE
SAE
SAE
SAE
SAE
SAE
SAE
SAE
SAE
SAE
SAE
SAE
SAE
SAE
SAE
SAE
SAE
SAE
SAE
SAE
SAE
SAE
SAE
SAE
SAE
SAE
SAE
SAE
SAE
SAE
SAE
SAE
SAE
SAE
SAE
SAE
SAE
SAE
SAE
SAE
SAE
SAE
SAE
SAE
SAE
SAE
SAE
SAE
SAE
SAE
SAE
SAE
SAE
SAE
SAE
SAE
SAE
SAE
SAE
SAE
SAE
SAE
SAE
SAE
SAE
SAE
SAE
SAE
SAE
SAE
SAE
SAE
SAE
SAE
SAE
SAE
SAE
SAE
SAE
SAE
SAE
SAE
SAE
SAE
SAE
SAE
SAE
SAE
SAE
SAE
SAE
SAE
SAE
SAE
SAE
SAE
SAE
SAE
SAE
SAE
SAE
SAE
SAE
SAE
SAE
SAE
SAE
SAE
SAE
SAE
SAE
SAE
SAE
SAE
SAE
SAE
SAE
SAE
SAE
SAE
SAE
SAE
SAE
SAE
SAE
SAE
SAE
SAE
SAE
SAE
SAE
SAE
SAE
SAE
SAE
SAE
SAE
SAE
SAE
SAE
SAE
SAE
SAE
SAE
SAE
SAE
SAE
SAE
SAE
SAE
SAE
SAE
SAE
SAE
SAE
SAE
SAE
SAE
SAE
SAE
SAE
SAE
SAE
SAE
SAE
SAE
SAE
SAE
SAE
SAE
SAE
SAE
SAE
SAE
SAE
SAE
SAE
SAE
SAE
SAE
SAE
SAE
SAE
SAE
SAE
SAE
SAE
SAE
SAE
SAE
SAE
SAE
SAE
SAE
SAE
SAE
SAE
SAE
SAE
SAE
SAE
SAE
SAE
SAE
SAE
SAE
SAE
SAE
SAE
SAE
SAE
SAE
SAE
SAE
SAE
SAE
SAE
SAE
SAE
SAE
SAE
SAE
SAE
SAE
SAE
SAE
SAE
SAE
SAE
SAE
SAE
SAE
SAE
SAE
SAE
SAE
SAE
SAE
SAE
SAE
SAE
SAE
SAE
SAE
SAE
SAE
SAE
SAE
SAE
SAE
SAE
SAE
SAE
SAE
SAE
SAE
SAE
SAE
SAE
SAE
SAE
SAE
SAE
SAE
SAE
SAE
SAE
SAE
SAE
SAE
SAE
SAE
SAE
SAE
SAE
SAE
SAE
SAE
SAE
SAE
SAE
SAE
SAE
SAE
SAE
SAE
SAE
SAE
SAE
SAE
SAE
SAE
SAE
SAE
SAE
SAE
SAE
SAE
SAE
SAE
SAE
SAE
SAE
SAE
SAE
SAE
SAE
SAE
SAE
SAE
SAE
SAE
SAE
SAE
SAE
SAE
SAE
SAE
SAE
SAE
SAE
SAE
SAE
SAE
SAE
SAE
SAE
SAE
SAE
SAE
SAE
SAE
SAE
SAE
SAE
SAE
SAE
SAE
SAE
SAE
SAE
SAE
SAE
SAE
SAE
SAE
SAE
SAE
SAE
SAE
SAE
SAE
SAE
SAE
SAE
SAE
SAE
SAE
SAE
SAE
SAE
SAE
SAE
SAE
SAE
SAE
SAE
SAE
SAE
SAE
SAE
SAE
SAE
SAE
SAE
SAE
SAE
SAE
SAE
SAE
SAE
SAE
SAE
SAE
SAE
SAE
SAE
SAE
SAE
SAE
SAE
SAE
SAE
SAE
SAE
SAE
SAE
SAE
SAE
SAE
SAE
SAE
SAE
SAE
SAE
SAE
SAE
SAE
SAE
SAE
SAE
SAE
SAE
SAE
SAE
SAE
SAE
SAE
SAE
SAE
SAE
SAE
SAE
SAE
SAE
SAE
SAE
SAE
SAE
SAE
SAE
SAE
SAE
SAE
SAE
SAE
SAE
SAE
SAE
SAE
SAE
SAE
SAE
SAE
SAE
SAE
SAE
SAE
SAE
SAE
SAE
SAE
SAE
SAE
SAE
SAE
SAE
SAE
SAE
SAE
SAE
SAE
SAE
SAE
SAE
SAE
SAE
SAE
SAE
SAE
SAE
SAE
SAE
SAE
SAE
SAE
SAE
SAE
SAE
SAE
SAE
SAE
SAE
SAE
SAE
SAE
SAE
SAE
SAE
SAE
SAE
SAE
SAE
SAE
SAE
SAE
SAE
SAE
SAE
SAE
SAE
SAE
SAE
SAE
SAE
SAE
SAE
SAE
SAE
SAE
SAE
SAE
SAE
SAE
SAE
SAE
SAE
SAE
SAE
SAE
SAE
SAE
SAE
SAE
SAE
SAE
SAE
SAE
SAE
SAE
SAE
SAE
SAE
SAE
SAE
SAE
SAE
SAE
SAE
SAE
SAE
SAE
SAE
SAE
SAE
SAE
SAE
SAE
SAE
SAE
SAE
SAE
SAE
SAE
SAE
SAE
SAE
SAE
SAE
SAE
SAE
SAE
SAE
SAE
SAE
SAE
SAE
SAE
SAE
SAE
SAE
SAE
SAE
SAE
SAE
SAE
SAE
SAE
SAE
SAE
SAE
SAE
SAE
SAE
SAE
SAE
SAE
SAE
SAE
SAE
SAE
SAE
SAE
SAE
SAE
SAE
SAE
SAE
SAE
SAE
SAE
SAE
SAE
SAE
SAE
SAE
SAE
SAE
SAE
SAE
SAE
SAE
SAE
SAE
SAE
SAE
SAE
SAE
SAE
SAE
SAE
SAE
SAE
SAE
SAE
SAE
SAE
SAE
SAE
SAE
SAE
SAE
SAE
SAE
SAE
SAE
SAE
SAE
SAE
SAE
SAE
SAE
SAE
SAE
SAE
SAE
SAE
SAE
SAE
SAE
SAE
SAE
SAE
SAE
SAE
SAE
SAE
SAE
SAE
SAE
SAE
SAE
SAE
SAE
SAE
SAE
SAE
SAE
SAE
SAE
SAE
SAE
SAE
SAE
SAE
SAE
SAE
SAE
SAE
SAE
SAE
SAE
SAE
SAE
SAE
SAE
SAE
SAE
SAE
SAE
SAE
SAE
SAE
SAE
SAE
SAE
SAE
SAE
SAE
SAE
SAE
SAE
SAE
SAE
SAE
SAE
SAE
SAE
SAE
SAE
SAE
SAE
SAE
SAE
SAE
SAE
SAE
SAE
SAE
SAE
SAE
SAE
SAE
SAE
SAE
SAE
SAE
SAE
SAE
SAE
SAE
SAE
SAE
SAE
SAE
SAE
SAE
SAE
SAE
SAE
SAE
SAE
SAE
SAE
SAE
SAE
SAE
SAE
SAE
SAE
SAE
SAE
SAE
SAE
SAE
SAE
SAE
SAE
SAE
SAE
SAE
SAE
SAE
SAE
SAE
SAE
SAE
SAE
SAE
SAE
SAE
SAE
SAE
SAE
SAE
SAE
SAE
SAE
SAE
SAE
SAE
SAE
SAE
SAE
SAE
SAE
SAE
SAE
SAE
SAE
SAE
SAE
SAE
SAE
SAE
SAE
SAE
SAE
SAE
SAE
SAE
SAE
SAE
SAE
SAE
SAE
SAE
SAE
SAE
SAE
SAE
SAE
SAE
SAE
SAE
SAE
SAE
SAE
SAE
SAE
SAE
SAE
SAE
SAE
SAE
SAE
SAE
SAE
SAE
SAE
SAE
SAE
SAE
SAE
SAE
SAE
SAE
SAE
SAE
SAE
SAE
SAE
SAE
SAE
SAE
SAE
SAE
SAE
SAE
SAE
SAE
SAE
SAE
SAE
SAE
SAE
SAE
SAE
SAE
SAE
SAE
SAE
SAE
SAE
SAE
SAE
SAE
SAE
SAE
SAE
SAE
SAE
SAE
SAE
SAE
SAE
SAE
SAE
SAE
SAE
SAE
SAE
SAE
SAE
SAE
SAE
SAE
SAE
SAE
SAE
SAE
SAE
SAE
SAE
SAE
SAE
SAE
SAE
SAE
SAE
SAE
SAE
SAE
SAE
SAE
SAE
SAE
SAE
SAE
SAE
SAE
SAE
SAE
SAE
SAE
SAE
SAE
SAE
SAE
SAE
SAE
SAE
SAE
SAE
SAE
SAE
SAE
SAE
SAE
SAE
SAE
SAE
SAE
SAE
SAE
SAE
SAE
SAE
SAE
SAE
SAE
SAE
SAE
SAE
SAE
SAE
SAE
SAE
SAE
SAE
SAE
SAE
SAE
SAE
SAE
SAE
SAE
SAE
SAE
SAE
SAE
SAE
SAE
SAE
SAE
SAE
SAE
SAE
SAE
SAE
SAE
SAE
SAE
SAE
SAE
SAE
SAE
SAE
SAE
SAE
SAE
SAE
SAE
SAE
SAE
SAE
SAE
SAE
SAE
SAE
SAE
SAE
SAE
SAE
SAE
SAE
SAE
SAE
SAE
SAE
SAE
SAE
SAE
SAE
SAE
SAE
SAE
SAE
SAE
SAE
SAE
SAE
SAE
SAE
SAE
SAE
SAE
SAE
SAE
SAE
SAE
SAE
SAE
SAE
SAE
SAE
SAE
SAE
SAE
SAE
SAE
SAE
SAE
SAE
SAE
SAE
SAE
SAE
SAE
SAE
SAE
SAE
SAE
SAE
SAE
SAE
SAE
SAE
SAE
SAE
SAE
SAE
SAE
SAE
SAE
SAE
SAE
SAE
SAE
SAE
SAE
SAE
SAE
SAE
SAE
SAE
SAE
SAE
SAE
SAE
SAE
SAE
SAE
SAE
SAE
SAE
SAE
SAE
SAE
SAE
SAE
SAE
SAE
SAE
SAE
SAE
SAE
SAE
SAE
SAE
SAE
SAE
SAE
SAE
SAE
SAE
SAE
SAE
SAE
SAE
SAE
SAE
SAE
SAE
SAE
SAE
SAE
SAE
SAE
SAE
SAE
SAE
SAE
SAE
SAE
SAE
SAE
SAE
SAE
SAE
SAE
SAE
SAE
SAE
SAE
SAE
SAE
SAE
SAE
SAE
SAE
SAE
SAE
SAE
SAE
SAE
SAE
SAE
SAE
SAE
SAE
SAE
SAE
SAE
SAE
SAE
SAE
SAE
SAE
SAE
SAE
SAE
SAE
SAE
SAE
SAE
SAE
SAE
SAE
SAE
SAE
SAE
SAE
SAE
SAE
SAE
SAE
SAE
SAE
SAE
SAE
SAE
SAE
SAE
SAE
SAE
SAE
SAE
SAE
SAE
SAE
SAE
SAE
SAE
SAE
SAE
SAE
SAE
SAE
SAE
SAE
SAE
SAE
SAE
SAE
SAE
SAE
SAE
SAE
SAE
SAE
SAE
SAE
SAE
SAE
SAE
SAE
SAE
SAE
SAE
SAE
SAE
SAE
SAE
SAE
SAE
SAE
SAE
SAE
SAE
SAE
SAE
SAE
SAE
SAE
SAE
SAE
SAE
SAE
SAE
SAE
SAE
SAE
SAE
SAE
SAE
SAE
SAE
SAE
SAE
SAE
SAE
SAE
SAE
SAE
SAE
SAE
SAE
SAE
SAE
SAE
SAE
SAE
SAE
SAE
SAE
SAE
SAE
SAE
SAE
SAE
SAE
SAE
SAE
SAE
SAE
SAE
SAE
SAE
SAE
SAE
SAE
SAE
SAE
SAE
SAE
SAE
SAE
SAE
SAE
SAE
SAE
SAE
SAE
SAE
SAE
SAE
SAE
SAE
SAE
SAE
SAE
SAE
SAE
SAE
SAE
SAE
SAE
SAE
SAE
SAE
SAE
SAE
SAE
SAE
SAE
SAE
SAE
SAE
SAE
SAE
SAE
SAE
SAE
SAE
SAE
SAE
SAE
SAE
SAE
SAE
SAE
SAE
SAE
SAE
SAE
SAE
SAE
SAE
SAE
SAE
SAE
SAE
SAE
SAE
SAE
SAE
SAE
SAE
SAE
SAE
SAE
SAE
SAE
SAE
SAE
SAE
SAE
SAE
SAE
SAE
SAE
SAE
SAE
SAE
SAE
SAE
SAE
SAE
SAE
SAE
SAE
SAE
SAE
SAE
SAE
SAE
SAE
SAE
SAE
SAE
SAE
SAE
SAE
SAE
SAE
SAE
SAE
SAE
SAE
SAE
SAE
SAE
SAE
SAE
SAE
SAE
SAE
SAE
SAE
SAE
SAE
SAE
SAE
SAE
SAE
SAE
SAE
SAE
SAE
SAE
SAE
SAE
SAE
SAE
SAE
SAE
SAE
SAE
SAE
SAE
SAE
SAE
SAE
SAE
SAE
SAE
SAE
SAE
SAE
SAE
SAE
SAE
SAE
SAE
SAE
SAE
SAE
SAE
SAE
SAE
SAE
SAE
SAE
SAE
SAE
SAE
SAE
SAE
SAE
SAE
SAE
SAE
SAE
SAE
SAE
SAE
SAE
SAE
SAE
SAE
SAE
SAE
SAE
SAE
SAE
SAE
SAE
SAE
SAE
SAE
SAE
SAE
SAE
SAE
SAE
SAE
SAE
SAE
SAE
SAE
SAE
SAE
SAE
SAE
SAE
SAE
SAE
SAE
SAE
SAE
SAE
SAE
SAE
SAE
SAE
SAE
SAE
SAE
SAE
SAE
SAE
SAE
SAE
SAE
SAE
SAE
SAE
SAE
SAE
SAE
SAE
SAE
SAE
SAE
SAE
SAE
SAE
SAE
SAE
SAE
SAE
SAE
SAE
SAE
SAE
SAE
SAE
SAE
SAE
SAE
SAE
SAE
SAE
SAE
SAE
SAE
SAE
SAE
SAE
SAE
SAE
SAE
SAE
SAE
SAE
SAE
SAE
SAE
SAE
SAE
SAE
SAE
SAE
SAE
SAE
SAE
SAE
SAE
SAE
SAE
SAE
SAE
SAE
SAE
SAE
SAE
SAE
SAE
SAE
SAE
SAE
SAE
SAE
SAE
SAE
SAE
SAE
SAE
SAE
SAE
SAE
SAE
SAE
SAE
SAE
SAE
SAE
SAE
SAE
SAE
SAE
SAE
SAE
SAE
SAE
SAE
SAE
SAE
SAE
SAE
SAE
SAE
SAE
SAE
SAE
SAE
SAE
SAE
SAE
SAE
SAE
SAE
SAE
SAE
SAE
SAE
SAE
SAE
SAE
SAE
SAE
SAE
SAE
SAE
SAE
SAE
SAE
SAE
SAE
SAE
SAE
SAE
SAE
SAE
SAE
SAE
SAE
SAE
SAE
SAE
SAE
SAE
SAE
SAE
SAE
SAE
SAE
SAE
SAE
SAE
SAE
SAE
SAE
SAE
SAE
SAE
SAE
SAE
SAE
SAE
SAE
SAE
SAE
SAE
SAE
SAE
SAE
SAE
SAE
SAE
SAE
SAE
SAE
SAE
SAE
SAE
SAE
SAE
SAE
SAE
SAE
SAE
SAE
SAE
SAE
SAE
SAE
SAE
SAE
SAE
SAE
SAE
SAE
SAE
SAE
SAE
SAE
SAE
SAE
SAE
SAE
SAE
SAE
SAE
SAE
SAE
SAE
SAE
SAE
SAE
SAE
SAE
SAE
SAE
SAE
SAE
SAE
SAE
SAE
SAE
SAE
SAE
SAE
SAE
SAE
SAE
SAE
SAE
SAE
SAE
SAE
SAE
SAE
SAE
SAE
SAE
SAE
SAE
SAE
SAE
SAE
SAE
SAE
SAE
SAE
SAE
SAE
SAE
SAE
SAE
SAE
SAE
SAE
SAE
SAE
SAE
SAE
SAE
SAE
SAE
SAE
SAE
SAE
SAE
SAE
SAE
SAE
SAE
SAE
SAE
SAE
SAE
SAE
SAE
SAE
SAE
SAE
SAE
SAE
SAE
SAE
SAE
SAE
SAE
SAE
SAE
SAE
SAE
SAE
SAE
SAE
SAE
SAE
SAE
SAE
SAE
SAE
SAE
SAE
SAE
SAE
SAE
SAE
SAE
SAE
SAE
SAE
SAE
SAE
SAE
SAE
SAE
SAE
SAE
SAE
SAE
SAE
SAE
SAE
SAE
SAE
SAE
SAE
SAE
SAE
SAE
SAE
SAE
SAE
SAE
SAE
SAE
SAE
SAE
SAE
SAE
SAE
SAE
SAE
SAE
SAE
SAE
SAE
SAE
SAE
SAE
SAE
SAE
SAE
SAE
SAE
SAE
SAE
SAE
SAE
SAE
SAE
SAE
SAE
SAE
SAE
SAE
SAE
SAE
SAE
SAE
SAE
SAE
SAE
SAE
SAE
SAE
SAE
SAE
SAE
SAE
SAE
SAE
SAE
SAE
SAE
SAE
SAE
SAE
SAE
SAE
SAE
SAE
SAE
SAE
SAE
SAE
SAE
SAE
SAE
SAE
SAE
SAE
SAE
SAE
SAE
SAE
SAE
SAE
SAE
SAE
SAE
SAE
SAE
SAE
SAE
SAE
SAE
SAE
SAE
SAE
SAE
SAE
SAE
SAE
SAE
SAE
SAE
SAE
SAE
SAE
SAE
SAE
SAE
SAE
SAE
SAE
SAE
SAE
SAE
SAE
SAE
SAE
SAE
SAE
SAE
SAE
SAE
SAE
SAE
SAE
SAE
SAE
SAE
SAE
SAE
SAE
SAE
SAE
SAE
SAE
SAE
SAE
SAE
SAE
SAE
SAE
SAE
SAE
SAE
SAE
SAE
SAE
SAE
SAE
SAE
SAE
SAE
SAE
SAE
SAE
SAE
SAE
SAE
SAE
SAE
SAE
SAE
SAE
SAE
SAE
SAE
SAE
SAE
SAE
SAE
SAE
SAE
SAE
SAE
SAE
SAE
SAE
SAE
SAE
SAE
SAE
SAE
SAE
SAE
SAE
SAE
SAE
SAE
SAE
SAE
SAE
SAE
SAE
SAE
SAE
SAE
SAE
SAE
SAE
SAE
SAE
SAE
SAE
SAE
SAE
SAE
SAE
SAE
SAE
SAE
SAE
SAE
SAE
SAE
SAE
SAE
SAE
SAE
SAE
SAE
SAE
SAE
SAE
SAE
SAE
SAE
SAE
SAE
SAE
SAE
SAE
SAE
SAE
SAE
SAE
SAE
SAE
SAE
SAE
SAE
SAE
SAE
SAE
SAE
SAE
SAE
SAE
SAE
SAE
SAE
SAE
SAE
SAE
SAE
SAE
SAE
SAE
SAE
SAE
SAE
SAE
SAE
SAE
SAE
SAE
SAE
SAE
SAE
SAE
SAE
SAE
SAE
SAE
SAE
SAE
SAE
SAE
SAE
SAE
SAE
SAE
SAE
SAE
SAE
SAE
SAE
SAE
SAE
SAE
SAE
SAE
SAE
SAE
SAE
SAE
SAE
SAE
SAE
SAE
SAE
SAE
SAE
SAE
SAE
SAE
SAE
SAE
SAE
SAE
SAE
SAE
SAE
SAE
SAE
SAE
SAE
SAE
SAE
SAE
SAE
SAE
SAE
SAE
SAE
SAE
SAE
SAE
SAE
SAE
SAE
SAE
SAE
SAE
SAE
SAE
SAE
SAE
SAE
SAE
SAE
SAE
SAE
SAE
SAE
SAE
SAE
SAE
SAE
SAE
SAE
SAE
SAE
SAE
SAE
SAE
SAE
SAE
SAE
SAE
SAE
SAE
SAE
SAE
SAE
SAE
SAE
SAE
SAE
SAE
SAE
SAE
SAE
SAE
SAE
SAE
SAE
SAE
SAE
SAE
SAE
SAE
SAE
SAE
SAE
SAE
SAE
SAE
SAE
SAE
SAE
SAE
SAE
SAE
SAE
SAE
SAE
SAE
SAE
SAE
SAE
SAE
SAE
SAE
SAE
SAE
SAE
SAE
SAE
SAE
SAE
SAE
SAE
SAE
SAE
SAE
SAE
SAE
SAE
SAE
SAE
SAE
SAE
SAE
SAE
SAE
SAE
SAE
SAE
SAE
SAE
SAE
SAE
SAE
SAE
SAE
SAE
SAE
SAE
SAE
SAE
SAE
SAE
SAE
SAE
SAE
SAE
SAE
SAE
SAE
SAE
SAE
SAE
SAE
SAE
SAE
SAE
SAE
SAE
SAE
SAE
SAE
SAE
SAE
SAE
SAE
SAE
SAE
SAE
SAE
SAE
SAE
SAE
SAE
SAE
SAE
SAE
SAE
SAE
SAE
SAE
SAE
SAE
SAE
SAE
SAE
SAE
SAE
SAE
SAE
SAE
SAE
SAE
SAE
SAE
SAE
SAE
SAE
SAE
SAE
SAE
SAE
SAE
SAE
SAE
SAE
SAE
SAE
SAE
SAE
SAE
SAE
SAE
SAE
SAE
SAE
SAE
SAE
SAE
SAE
SAE
SAE
SAE
SAE
SAE
SAE
SAE
SAE
SAE
SAE
SAE
SAE
SAE
SAE
SAE
SAE
SAE
SAE
SAE
SAE
SAE
SAE
SAE
SAE
SAE
SAE
SAE
SAE
SAE
SAE
SAE
SAE
SAE
SAE
SAE
SAE
SAE
SAE
SAE
SAE
SAE
SAE
SAE
SAE
SAE
SAE
SAE
SAE
SAE
SAE
SAE
SAE
SAE
SAE
SAE
SAE
SAE
SAE
SAE
SAE
SAE
SAE
SAE
SAE
SAE
SAE
SAE
SAE
SAE
SAE
SAE
SAE
SAE
SAE
SAE
SAE
SAE
SAE
SAE
SAE
SAE
SAE
SAE
SAE
SAE
SAE
SAE
SAE
SAE
SAE
SAE
SAE
SAE
SAE
SAE
SAE
SAE
SAE
SAE
SAE
SAE
SAE
SAE
SAE
SAE
SAE
SAE
SAE
SAE
SAE
SAE
SAE
SAE
SAE
SAE
SAE
SAE
SAE
SAE
SAE
SAE
SAE
SAE
SAE
SAE
SAE
SAE
SAE
SAE
SAE
SAE
SAE
SAE
SAE
SAE
SAE
SAE
SAE
SAE
SAE
SAE
SAE
SAE
SAE
SAE
SAE
SAE
SAE
SAE
SAE
SAE
SAE
SAE
SAE
SAE
SAE
SAE
SAE
SAE
SAE
SAE
SAE
SAE
SAE
SAE
SAE
SAE
SAE
SAE
SAE
SAE
SAE
SAE
SAE
SAE
SAE
SAE
SAE
SAE
SAE
SAE
SAE
SAE
SAE
SAE
SAE
SAE
SAE
SAE
SAE
SAE
SAE
SAE
SAE
SAE
SAE
SAE
SAE
SAE
SAE
SAE
SAE
SAE
SAE
SAE
SAE
SAE
SAE
SAE
SAE
SAE
SAE
SAE
SAE
SAE
SAE
SAE
SAE
SAE
SAE
SAE
SAE
SAE
SAE
SAE
SAE
SAE
SAE
SAE
SAE
SAE
SAE
SAE
SAE
SAE
SAE
SAE
SAE
SAE
SAE
SAE
SAE
SAE
SAE
SAE
SAE
SAE
SAE
SAE
SAE
SAE
SAE
SAE
SAE
SAE
SAE
SAE
SAE
SAE
SAE
SAE
SAE
SAE
SAE
SAE
SAE
SAE
SAE
SAE
SAE
SAE
SAE
SAE
SAE
SAE
SAE
SAE
SAE
SAE
SAE
SAE
SAE
SAE
SAE
SAE
SAE
SAE
SAE
SAE
SAE
SAE
SAE
SAE
SAE
SAE
SAE
SAE
SAE
SAE
SAE
SAE
SAE
SAE
SAE
SAE
SAE
SAE
SAE
SAE
SAE
SAE
SAE
SAE
SAE
SAE
SAE
SAE
SAE
SAE
SAE
SAE
SAE
SAE
SAE
SAE
SAE
SAE
SAE
SAE
SAE
SAE
SAE
SAE
SAE
SAE
SAE
SAE
SAE
SAE
SAE
SAE
SAE
SAE
SAE
SAE
SAE
SAE
SAE
SAE
SAE
SAE
SAE
SAE
SAE
SAE
SAE
SAE
SAE
SAE
SAE
SAE
SAE
SAE
SAE
SAE
SAE
SAE
SAE
SAE
SAE
SAE
SAE
SAE
SAE
SAE
SAE
SAE
SAE
SAE
SAE
SAE
SAE
SAE
SAE
SAE
SAE
SAE
SAE
SAE
SAE
SAE
SAE
SAE
SAE
SAE
SAE
SAE
SAE
SAE
SAE
SAE
SAE
SAE
SAE
SAE
SAE
SAE
SAE
SAE
SAE
SAE
SAE
SAE
SAE
SAE
SAE
SAE
SAE
SAE
SAE
SAE
SAE
SAE
SAE
SAE
SAE
SAE
SAE
SAE
SAE
SAE
SAE
SAE
SAE
SAE
SAE
SAE
SAE
SAE
SAE
SAE
SAE
SAE
SAE
SAE
SAE
SAE
SAE
SAE
SAE
SAE
SAE
SAE
SAE
SAE
SAE
SAE
SAE
SAE
SAE
SAE
SAE
SAE
SAE
SAE
SAE
SAE
SAE
SAE
SAE
SAE
SAE
SAE
SAE
SAE
SAE
SAE
SAE
SAE
SAE
SAE
SAE
SAE
SAE
SAE
SAE
SAE
SAE
SAE
SAE
SAE
SAE
SAE
SAE
SAE
SAE
SAE
SAE
SAE
SAE
SAE
SAE
SAE
SAE
SAE
SAE
SAE
SAE
SAE
SAE
SAE
SAE
SAE
SAE
SAE
SAE
SAE
SAE
SAE
SAE
SAE
SAE
SAE
SAE
SAE
SAE
SAE
SAE
SAE
SAE
SAE
SAE
SAE
SAE
SAE
SAE
SAE
SAE
SAE
SAE
SAE
SAE
SAE
SAE
SAE
SAE
SAE
SAE
SAE
SAE
SAE
SAE
SAE
SAE
SAE
SAE
SAE
SAE
SAE
SAE
SAE
SAE
SAE
SAE
SAE
SAE
SAE
SAE
SAE
SAE
SAE
SAE
SAE
SAE
SAE
SAE
SAE
SAE
SAE
SAE
SAE
SAE
SAE
SAE
SAE
SAE
SAE
SAE
SAE
SAE
SAE
SAE
SAE
SAE
SAE
SAE
SAE
SAE
SAE
SAE
SAE
SAE
SAE
SAE
SAE
SAE
SAE
SAE
SAE
SAE
SAE
SAE
SAE
SAE
SAE
SAE
SAE
SAE
SAE
SAE
SAE
SAE
SAE
SAE
SAE
SAE
SAE
SAE
SAE
SAE
SAE
SAE
SAE
SAE
SAE
SAE
SAE
SAE
SAE
SAE
SAE
SAE
SAE
SAE
SAE
SAE
SAE
SAE
SAE
SAE
SAE
SAE
SAE
SAE
SAE
SAE
SAE
SAE
SAE
SAE
SAE
SAE
SAE
SAE
SAE
SAE
SAE
SAE
SAE
SAE
SAE
SAE
SAE
SAE
SAE
SAE
SAE
SAE
SAE
SAE
SAE
SAE
SAE
SAE
SAE
SAE
SAE
SAE
SAE
SAE
SAE
SAE
SAE
SAE
SAE
SAE
SAE
SAE
SAE
SAE
SAE
SAE
SAE
SAE
SAE
SAE
SAE
SAE
SAE
SAE
SAE
SAE
SAE
SAE
SAE
SAE
SAE
SAE
SAE
SAE
SAE
SAE
SAE
SAE
SAE
SAE
SAE
SAE
SAE
SAE
SAE
SAE
SAE
SAE
SAE
SAE
SAE
SAE
SAE
SAE
SAE
SAE
SAE
SAE
SAE
SAE
SAE
SAE
SAE
SAE
SAE
SAE
SAE
SAE
SAE
SAE
SAE
SAE
SAE
SAE
SAE
SAE
SAE
SAE
SAE
SAE
SAE
SAE
SAE
SAE
SAE
SAE
SAE
SAE
SAE
SAE
SAE
SAE
SAE
SAE
SAE
SAE
SAE
SAE
SAE
SAE
SAE
SAE
SAE
SAE
SAE
SAE
SAE
SAE
SAE
SAE
SAE
SAE
SAE
SAE
SAE
SAE
SAE
SAE
SAE
SAE
SAE
SAE
SAE
SAE
SAE
SAE
SAE
SAE
SAE
SAE
SAE
SAE
SAE
SAE
SAE
SAE
SAE
SAE
SAE
SAE
SAE
SAE
SAE
SAE
SAE
SAE
SAE
SAE
SAE
SAE
SAE
SAE
SAE
SAE
SAE
SAE
SAE
SAE
SAE
SAE
SAE
SAE
SAE
SAE
SAE
SAE
SAE
SAE
SAE
SAE
SAE
SAE
SAE
SAE
SAE
SAE
SAE
SAE
SAE
SAE
SAE
SAE
SAE
SAE
SAE
SAE
SAE
SAE
SAE
SAE
SAE
SAE
SAE
SAE
SAE
SAE
SAE
SAE
SAE
SAE
SAE
SAE
SAE
SAE
SAE
SAE
SAE
SAE
SAE
SAE
SAE
SAE
SAE
SAE
SAE
SAE
SAE
SAE
SAE
SAE
SAE
SAE
SAE
SAE
SAE
SAE
SAE
SAE
SAE
SAE
SAE
SAE
SAE
SAE
SAE
SAE
SAE
SAE
SAE
SAE
SAE
SAE
SAE
SAE
SAE
SAE
SAE
SAE
SAE
SAE
SAE
SAE
SAE
SAE
SAE
SAE
SAE
SAE
SAE
SAE
SAE
SAE
SAE
SAE
SAE
SAE
SAE
SAE
SAE
SAE
SAE
SAE
SAE
SAE
SAE
SAE
SAE
SAE
SAE
SAE
SAE
SAE
SAE
SAE
SAE
SAE
SAE
SAE
SAE
SAE
SAE
SAE
SAE
SAE
SAE
SAE
SAE
SAE
SAE
SAE
SAE
SAE
SAE
SAE
SAE
SAE
SAE
SAE
SAE
SAE
SAE
SAE
SAE
SAE
SAE
SAE
SAE
SAE
SAE
SAE
SAE
SAE
SAE
SAE
SAE
SAE
SAE
SAE
SAE
SAE
SAE
SAE
SAE
SAE
SAE
SAE
SAE
SAE
SAE
SAE
SAE
SAE
SAE
SAE
SAE
SAE
SAE
SAE
SAE
SAE
SAE
SAE
SAE
SAE
SAE
SAE
SAE
SAE
SAE
SAE
SAE
SAE
SAE
SAE
SAE
SAE
SAE
SAE
SAE
SAE
SAE
SAE
SAE
SAE
SAE
SAE
SAE
SAE
SAE
SAE
SAE
SAE
SAE
SAE
SAE
SAE
SAE
SAE
SAE
SAE
SAE
SAE
SAE
SAE
SAE
SAE
SAE
SAE
SAE
SAE
SAE
SAE
SAE
SAE
SAE
SAE
SAE
SAE
SAE
SAE
SAE
SAE
SAE
SAE
SAE
SAE
SAE
SAE
SAE
SAE
SAE
SAE
SAE
SAE
SAE
SAE
SAE
SAE
SAE
SAE
SAE
SAE
SAE
SAE
SAE
SAE
SAE
SAE
SAE
SAE
SAE
SAE
SAE
SAE
SAE
SAE
SAE
SAE
SAE
SAE
SAE
SAE
SAE
SAE
SAE
SAE
SAE
SAE
SAE
SAE
SAE
SAE
SAE
SAE
SAE
SAE
SAE
SAE
SAE
SAE
SAE
SAE
SAE
SAE
SAE
SAE
SAE
SAE
SAE
SAE
SAE
SAE
SAE
SAE
SAE
SAE
SAE
SAE
SAE
SAE
SAE
SAE
SAE
SAE
SAE
SAE
SAE
SAE
SAE
SAE
SAE
SAE
SAE
SAE
SAE
SAE
SAE
SAE
SAE
SAE
SAE
SAE
SAE
SAE
SAE
SAE
SAE
SAE
SAE
SAE
SAE
SAE
SAE
SAE
SAE
SAE
SAE
SAE
SAE
SAE
SAE
SAE
SAE
SAE
SAE
SAE
SAE
SAE
SAE
SAE
SAE
SAE
SAE
SAE
SAE
SAE
SAE
SAE
SAE
SAE
SAE
SAE
SAE
SAE
SAE
SAE
SAE
SAE
SAE
SAE
SAE
SAE
SAE
SAE
SAE
SAE
SAE
SAE
SAE
SAE
SAE
SAE
SAE
SAE
SAE
SAE
SAE
SAE
SAE
SAE
SAE
SAE
SAE
SAE
SAE
SAE
SAE
SAE
SAE
SAE
SAE
SAE
SAE
SAE
SAE
SAE
SAE
SAE
SAE
SAE
SAE
SAE
SAE
SAE
SAE
SAE
SAE
SAE
SAE
SAE
SAE
SAE
SAE
SAE
SAE
SAE
SAE
SAE
SAE
SAE
SAE
SAE
SAE
SAE
SAE
SAE
SAE
SAE
SAE
SAE
SAE
SAE
SAE
SAE
SAE
SAE
SAE
SAE
SAE
SAE
SAE
SAE
SAE
SAE
SAE
SAE
SAE
SAE
SAE
SAE
SAE
SAE
SAE
SAE
SAE
SAE
SAE
SAE
SAE
SAE
SAE
SAE
SAE
SAE
SAE
SAE
SAE
SAE
SAE
SAE
SAE
SAE
SAE
SAE
SAE
SAE
SAE
SAE
SAE
SAE
SAE
SAE
SAE
SAE
SAE
SAE
SAE
SAE
SAE
SAE
SAE
SAE
SAE
SAE
SAE
SAE
SAE
SAE
SAE
SAE
SAE
SAE
SAE
SAE
SAE
SAE
SAE
SAE
SAE
SAE
SAE
SAE
SAE
SAE
SAE
SAE
SAE
SAE
SAE
SAE
SAE
SAE
SAE
SAE
SAE
SAE
SAE
SAE
SAE
SAE
SAE
SAE
SAE
SAE
SAE
SAE
SAE
SAE
SAE
SAE
SAE
SAE
SAE
SAE
SAE
SAE
SAE
SAE
SAE
SAE
SAE
SAE
SAE
SAE
SAE
SAE
SAE
SAE
SAE
SAE
SAE
SAE
SAE
SAE
SAE
SAE
SAE
SAE
SAE
SAE
SAE
SAE
SAE
SAE
SAE
SAE
SAE
SAE
SAE
SAE
SAE
SAE
SAE
SAE
SAE
SAE
SAE
SAE
SAE
SAE
SAE
SAE
SAE
SAE
SAE
SAE
SAE
SAE
SAE
SAE
SAE
SAE
SAE
SAE
SAE
SAE
SAE
SAE
SAE
SAE
SAE
SAE
SAE
SAE
SAE
SAE
SAE
SAE
SAE
SAE
SAE
SAE
SAE
SAE
SAE
SAE
SAE
SAE
SAE
SAE
SAE
SAE
SAE
SAE
SAE
SAE
SAE
SAE
SAE
SAE
SAE
SAE
SAE
SAE
SAE
SAE
SAE
SAE
SAE
SAE
SAE
SAE
SAE
SAE
SAE
SAE
SAE
SAE
SAE
SAE
SAE
SAE
SAE
SAE
SAE
SAE
SAE
SAE
SAE
SAE
SAE
SAE
SAE
SAE
SAE
SAE
SAE
SAE
SAE
SAE
SAE
SAE
SAE
SAE
SAE
SAE
SAE
SAE
SAE
SAE
SAE
SAE
SAE
SAE
SAE
SAE
SAE
SAE
SAE
SAE
SAE
SAE
SAE
SAE
SAE
SAE
SAE
SAE
SAE
SAE
SAE
SAE
SAE
SAE
SAE
SAE
SAE
SAE
SAE
SAE
SAE
SAE
SAE
SAE
SAE
SAE
SAE
SAE
SAE
SAE
SAE
SAE
SAE
SAE
SAE
SAE
SAE
SAE
SAE
SAE
SAE
SAE
SAE
SAE
SAE
SAE
SAE
SAE
SAE
SAE
SAE
SAE
SAE
SAE
SAE
SAE
SAE
SAE
SAE
SAE
SAE
SAE
SAE
SAE
SAE
SAE
SAE
SAE
SAE
SAE
SAE
SAE
SAE
SAE
SAE
SAE
SAE
SAE
SAE
SAE
SAE
SAE
SAE
SAE
SAE
SAE
SAE
SAE
SAE
SAE
SAE
SAE
SAE
SAE
SAE
SAE
SAE
SAE
SAE
SAE
SAE
SAE
SAE
SAE
SAE
SAE
SAE
SAE
SAE
SAE
SAE
SAE
SAE
SAE
SAE
SAE
SAE
SAE
SAE
SAE
SAE
SAE
SAE
SAE
SAE
SAE
SAE
SAE
SAE
SAE
SAE
SAE
SAE
SAE
SAE
SAE
SAE
SAE
SAE
SAE
SAE
SAE
SAE
SAE
SAE
SAE
SAE
SAE
SAE
SAE
SAE
SAE
SAE
SAE
SAE
SAE
SAE
SAE
SAE
SAE
SAE
SAE
SAE
SAE
SAE
SAE
SAE
SAE
SAE
SAE
SAE
SAE
SAE
SAE
SAE
SAE
SAE
SAE
SAE
SAE
SAE
SAE
SAE
SAE
SAE
SAE
SAE
SAE
SAE
SAE
SAE
SAE
SAE
SAE
SAE
SAE
SAE
SAE
SAE
SAE
SAE
SAE
SAE
SAE
SAE
SAE
SAE
SAE
SAE
SAE
SAE
SAE
SAE
SAE
SAE
SAE
SAE
SAE
SAE
SAE
SAE
SAE
SAE
SAE
SAE
SAE
SAE
SAE
SAE
SAE
SAE
SAE
SAE
SAE
SAE
SAE
SAE
SAE
SAE
SAE
SAE
SAE
SAE
SAE
SAE
SAE
SAE
SAE
SAE
SAE
SAE
SAE
SAE
SAE
SAE
SAE
SAE
SAE
SAE
SAE
SAE
SAE
SAE
SAE
SAE
SAE
SAE
SAE
SAE
SAE
SAE
SAE
SAE
SAE
SAE
SAE
SAE
SAE
SAE
SAE
SAE
SAE
SAE
SAE
SAE
SAE
SAE
SAE
SAE
SAE
SAE
SAE
SAE
SAE
SAE
SAE
SAE
SAE
SAE
SAE
SAE
SAE
SAE
SAE
SAE
SAE
SAE
SAE
SAE
SAE
SAE
SAE
SAE
SAE
SAE
SAE
SAE
SAE
SAE
SAE
SAE
SAE
SAE
SAE
SAE
SAE
SAE
SAE
SAE
SAE
SAE
SAE
SAE
SAE
SAE
SAE
SAE
SAE
SAE
SAE
SAE
SAE
SAE
SAE
SAE
SAE
SAE
SAE
SAE
SAE
SAE
SAE
SAE
SAE
SAE
SAE
SAE
SAE
SAE
SAE
SAE
SAE
SAE
SAE
SAE
SAE
SAE
SAE
SAE
SAE
SAE
SAE
SAE
SAE
SAE
SAE
SAE
SAE
SAE
SAE
SAE
SAE
SAE
SAE
SAE
SAE
SAE
SAE
SAE
SAE
SAE
SAE
SAE
SAE
SAE
SAE
SAE
SAE
SAE
SAE
SAE
SAE
SAE
SAE
SAE
SAE
SAE
SAE
SAE
SAE
SAE
SAE
SAE
SAE
SAE
SAE
SAE
SAE
SAE
SAE
SAE
SAE
SAE
SAE
SAE
SAE
SAE
SAE
SAE
SAE
SAE
SAE
SAE
SAE
SAE
SAE
SAE
SAE
SAE
SAE
SAE
SAE
SAE
SAE
SAE
SAE
SAE
SAE
SAE
SAE
SAE
SAE
SAE
SAE
SAE
SAE
SAE
SAE
SAE
SAE
SAE
SAE
SAE
SAE
SAE
SAE
SAE
SAE
SAE
SAE
SAE
SAE
SAE
SAE
SAE
SAE
SAE
SAE
SAE
SAE
SAE
SAE
SAE
SAE
SAE
SAE
SAE
SAE
SAE
SAE
SAE
SAE
SAE
SAE
SAE
SAE
SAE
SAE
SAE
SAE
SAE
SAE
SAE
SAE
SAE
SAE
SAE
SAE
SAE
SAE
SAE
SAE
SAE
SAE
SAE
SAE
SAE
SAE
SAE
SAE
SAE
SAE
SAE
SAE
SAE
SAE
SAE
SAE
SAE
SAE
SAE
SAE
SAE
SAE
SAE
SAE
SAE
SAE
SAE
SAE
SAE
SAE
SAE
SAE
SAE
SAE
SAE
SAE
SAE
SAE
SAE
SAE
SAE
SAE
SAE
SAE
SAE
SAE
SAE
SAE
SAE
SAE
SAE
SAE
SAE
SAE
SAE
SAE
SAE
SAE
SAE
SAE
SAE
SAE
SAE
SAE
SAE
SAE
SAE
SAE
SAE
SAE
SAE
SAE
SAE
SAE
SAE
SAE
SAE
SAE
SAE
SAE
SAE
SAE
SAE
SAE
SAE
SAE
SAE
SAE
SAE
SAE
SAE
SAE
SAE
SAE
SAE
SAE
SAE
SAE
SAE
SAE
SAE
SAE
SAE
SAE
SAE
SAE
SAE
SAE
SAE
SAE
SAE
SAE
SAE
SAE
SAE
SAE
SAE
SAE
SAE
SAE
SAE
SAE
SAE
SAE
SAE
SAE
SAE
SAE
SAE
SAE
SAE
SAE
SAE
SAE
SAE
SAE
SAE
SAE
SAE
SAE
SAE
SAE
SAE
SAE
SAE
SAE
SAE
SAE
SAE
SAE
SAE
SAE
SAE
SAE
SAE
SAE
SAE
SAE
SAE
SAE
SAE
SAE
SAE
SAE
SAE
SAE
SAE
SAE
SAE
SAE
SAE
SAE
SAE
SAE
SAE
SAE
SAE
SAE
SAE
SAE
SAE
SAE
SAE
SAE
SAE
SAE
SAE
SAE
SAE
SAE
SAE
SAE
SAE
SAE
SAE
SAE
SAE
SAE
SAE
SAE
SAE
SAE
SAE
SAE
SAE
SAE
SAE
SAE
SAE
SAE
SAE
SAE
SAE
SAE
SAE
SAE
SAE
SAE
SAE
SAE
SAE
SAE
SAE
SAE
SAE
SAE
SAE
SAE
SAE
SAE
SAE
SAE
SAE
SAE
SAE
SAE
SAE
SAE
SAE
SAE
SAE
SAE
SAE
SAE
SAE
SAE
SAE
SAE
SAE
SAE
SAE
SAE
SAE
SAE
SAE
SAE
SAE
SAE
SAE
SAE
SAE
SAE
SAE
SAE
SAE
SAE
SAE
SAE
SAE
SAE
SAE
SAE
SAE
SAE
SAE
SAE
SAE
SAE
SAE
SAE
SAE
SAE
SAE
SAE
SAE
SAE
SAE
SAE
SAE
SAE
SAE
SAE
SAE
SAE
SAE
SAE
SAE
SAE
SAE
SAE
SAE
SAE
SAE
SAE
SAE
SAE
SAE
SAE
SAE
SAE
SAE
SAE
SAE
SAE
SAE
SAE
SAE
SAE
SAE
SAE
SAE
SAE
SAE
SAE
SAE
SAE
SAE
SAE
SAE
SAE
SAE
SAE
SAE
SAE
SAE
SAE
SAE
SAE
SAE
SAE
SAE
SAE
SAE
SAE
SAE
SAE
SAE
SAE
SAE
SAE
SAE
SAE
SAE
SAE
SAE
SAE
SAE
SAE
SAE
SAE
SAE
SAE
SAE
SAE
SAE
SAE
SAE
SAE
SAE
SAE
SAE
SAE
SAE
SAE
SAE
SAE
SAE
SAE
SAE
SAE
SAE
SAE
SAE
SAE
SAE
SAE
SAE
SAE
SAE
SAE
SAE
SAE
SAE
SAE
SAE
SAE
SAE
SAE
SAE
SAE
SAE
SAE
SAE
SAE
SAE
SAE
SAE
SAE
SAE
SAE
SAE
SAE
SAE
SAE
SAE
SAE
SAE
SAE
SAE
SAE
SAE
SAE
SAE
SAE
SAE
SAE
SAE
SAE
SAE
SAE
SAE
SAE
SAE
SAE
SAE
SAE
SAE
SAE
SAE
SAE
SAE
SAE
SAE
SAE
SAE
SAE
SAE
SAE
SAE
SAE
SAE
SAE
SAE
SAE
SAE
SAE
SAE
SAE
SAE
SAE
SAE
SAE
SAE
SAE
SAE
SAE
SAE
SAE
SAE
SAE
SAE
SAE
SAE
SAE
SAE
SAE
SAE
SAE
SAE
SAE
SAE
SAE
SAE
SAE
SAE
SAE
SAE
SAE
SAE
SAE
SAE
SAE
SAE
SAE
SAE
SAE
SAE
SAE
SAE
SAE
SAE
SAE
SAE
SAE
SAE
SAE
SAE
SAE
SAE
SAE
SAE
SAE
SAE
SAE
SAE
SAE
SAE
SAE
SAE
SAE
SAE
SAE
SAE
SAE
SAE
SAE
SAE
SAE
SAE
SAE
SAE
SAE
SAE
SAE
SAE
SAE
SAE
SAE
SAE
SAE
SAE
SAE
SAE
SAE
SAE
SAE
SAE
SAE
SAE
SAE
SAE
SAE
SAE
SAE
SAE
SAE
SAE
SAE
SAE
SAE
SAE
SAE
SAE
SAE
SAE
SAE
SAE
SAE
SAE
SAE
SAE
SAE
SAE
SAE
SAE
SAE
SAE
SAE
SAE
SAE
SAE
SAE
SAE
SAE
SAE
SAE
SAE
SAE
SAE
SAE
SAE
SAE
SAE
SAE
SAE
SAE
SAE
SAE
SAE
SAE
SAE
SAE
SAE
SAE
SAE
SAE
SAE
SAE
SAE
SAE
SAE
SAE
SAE
SAE
SAE
SAE
SAE
SAE
SAE
SAE
SAE
SAE
SAE
SAE
SAE
SAE
SAE
SAE
SAE
SAE
SAE
SAE
SAE
SAE
SAE
SAE
SAE
SAE
SAE
SAE
SAE
SAE
SAE
SAE
SAE
SAE
SAE
SAE
SAE
SAE
SAE
SAE
SAE
SAE
SAE
SAE
SAE
SAE
SAE
SAE
SAE
SAE
SAE
SAE
SAE
SAE
SAE
SAE
SAE
SAE
SAE
SAE
SAE
SAE
SAE
SAE
SAE
SAE
SAE
SAE
SAE
SAE
SAE
SAE
SAE
SAE
SAE
SAE
SAE
SAE
SAE
SAE
SAE
SAE
SAE
SAE
SAE
SAE
SAE
SAE
SAE
SAE
SAE
SAE
SAE
SAE
SAE
SAE
SAE
SAE
SAE
SAE
SAE
SAE
SAE
SAE
SAE
SAE
SAE
SAE
SAE
SAE
SAE
SAE
SAE
SAE
SAE
SAE
SAE
SAE
SAE
SAE
SAE
SAE
SAE
SAE
SAE
SAE
SAE
SAE
SAE
SAE
SAE
SAE
SAE
SAE
SAE
SAE
SAE
SAE
SAE
SAE
SAE
SAE
SAE
SAE
SAE
SAE
SAE
SAE
SAE
SAE
SAE
SAE
SAE
SAE
SAE
SAE
SAE
SAE
SAE
SAE
SAE
SAE
SAE
SAE
SAE
SAE
SAE
SAE
SAE
SAE
SAE
SAE
SAE
SAE
SAE
SAE
SAE
SAE
SAE
SAE
SAE
SAE
SAE
SAE
SAE
SAE
SAE
SAE
SAE
SAE
SAE
SAE
SAE
SAE
SAE
SAE
SAE
SAE
SAE
SAE
SAE
SAE
SAE
SAE
SAE
SAE
SAE
SAE
SAE
SAE
SAE
SAE
SAE
SAE
SAE
SAE
SAE
SAE
SAE
SAE
SAE
SAE
SAE
SAE
SAE
SAE
SAE
SAE
SAE
SAE
SAE
SAE
SAE
SAE
SAE
SAE
SAE
SAE
SAE
SAE
SAE
SAE
SAE
SAE
SAE
SAE
SAE
SAE
SAE
SAE
SAE
SAE
SAE
SAE
SAE
SAE
SAE
SAE
SAE
SAE
SAE
SAE
SAE
SAE
SAE
SAE
SAE
SAE
SAE
SAE
SAE
SAE
SAE
SAE
SAE
SAE
SAE
SAE
SAE
SAE
SAE
SAE
SAE
SAE
SAE
SAE
SAE
SAE
SAE
SAE
SAE
SAE
SAE
SAE
SAE
SAE
SAE
SAE
SAE
SAE
SAE
SAE
SAE
SAE
SAE
SAE
SAE
SAE
SAE
SAE
SAE
SAE
SAE
SAE
SAE
SAE
SAE
SAE
SAE
SAE
SAE
SAE
SAE
SAE
SAE
SAE
SAE
SAE
SAE
SAE
SAE
SAE
SAE
SAE
SAE
SAE
SAE
SAE
SAE
SAE
SAE
SAE
SAE
SAE
SAE
SAE
SAE
SAE
SAE
SAE
SAE
SAE
SAE
SAE
SAE
SAE
SAE
SAE
SAE
SAE
SAE
SAE
SAE
SAE
SAE
SAE
SAE
SAE
SAE
SAE
SAE
SAE
SAE
SAE
SAE
SAE
SAE
SAE
SAE
SAE
SAE
SAE
SAE
SAE
SAE
SAE
SAE
SAE
SAE
SAE
SAE
SAE
SAE
SAE
SAE
SAE
SAE
SAE
SAE
SAE
SAE
SAE
SAE
SAE
SAE
SAE
SAE
SAE
SAE
SAE
SAE
SAE
SAE
SAE
SAE
SAE
SAE
SAE
SAE
SAE
SAE
SAE
SAE
SAE
SAE
SAE
SAE
SAE
SAE
SAE
SAE
SAE
SAE
SAE
SAE
SAE
SAE
SAE
SAE
SAE
SAE
SAE
SAE
SAE
SAE
SAE
SAE
SAE
SAE
SAE
SAE
SAE
SAE
SAE
SAE
SAE
SAE
SAE
SAE
SAE
SAE
SAE
SAE
SAE
SAE
SAE
SAE
SAE
SAE
SAE
SAE
SAE
SAE
SAE
SAE
SAE
SAE
SAE
SAE
SAE
SAE
SAE
SAE
SAE
SAE
SAE
SAE
SAE
SAE
SAE
SAE
SAE
SAE
SAE
SAE
SAE
SAE
SAE
SAE
SAE
SAE
SAE
SAE
SAE
SAE
SAE
SAE
SAE
SAE
SAE
SAE
SAE
SAE
SAE
SAE
SAE
SAE
SAE
SAE
SAE
SAE
SAE
SAE
SAE
SAE
SAE
SAE
SAE
SAE
SAE
SAE
SAE
SAE
SAE
SAE
SAE
SAE
SAE
SAE
SAE
SAE
SAE
SAE
SAE
SAE
SAE
SAE
SAE
SAE
SAE
SAE
SAE
SAE
SAE
SAE
SAE
SAE
SAE
SAE
SAE
SAE
SAE
SAE
SAE
SAE
SAE
SAE
SAE
SAE
SAE
SAE
SAE
SAE
SAE
SAE
SAE
SAE
SAE
SAE
SAE
SAE
SAE
SAE
SAE
SAE
SAE
SAE
SAE
SAE
SAE
SAE
SAE
SAE
SAE
SAE
SAE
SAE
SAE
SAE
SAE
SAE
SAE
SAE
SAE
SAE
SAE
SAE
SAE
SAE
SAE
SAE
SAE
SAE
SAE
SAE
SAE
SAE
SAE
SAE
SAE
SAE
SAE
SAE
SAE
SAE
SAE
SAE
SAE
SAE
SAE
SAE
SAE
SAE
SAE
SAE
SAE
SAE
SAE
SAE
SAE
SAE
SAE
SAE
SAE
SAE
SAE
SAE
SAE
SAE
SAE
SAE
SAE
SAE
SAE
SAE
SAE
SAE
SAE
SAE
SAE
SAE
SAE
SAE
SAE
SAE
SAE
SAE
SAE
SAE
SAE
SAE
SAE
SAE
SAE
SAE
SAE
SAE
SAE
SAE
SAE
SAE
SAE
SAE
SAE
SAE
SAE
SAE
SAE
SAE
SAE
SAE
SAE
SAE
SAE
SAE
SAE
SAE
SAE
SAE
SAE
SAE
SAE
SAE
SAE
SAE
SAE
SAE
SAE
SAE
SAE
SAE
SAE
SAE
SAE
SAE
SAE
SAE
SAE
SAE
SAE
SAE
SAE
SAE
SAE
SAE
SAE
SAE
SAE
SAE
SAE
SAE
SAE
SAE
SAE
SAE
SAE
SAE
SAE
SAE
SAE
SAE
SAE
SAE
SAE
SAE
SAE
SAE
SAE
SAE
SAE
SAE
SAE
SAE
SAE
SAE
SAE
SAE
SAE
SAE
SAE
SAE
SAE
SAE
SAE
SAE
SAE
SAE
SAE
SAE
SAE
SAE
SAE
SAE
SAE
SAE
SAE
SAE
SAE
SAE
SAE
SAE
SAE
SAE
SAE
SAE
SAE
SAE
SAE
SAE
SAE
SAE
SAE
SAE
SAE
SAE
SAE
SAE
SAE
SAE
SAE
SAE
SAE
SAE
SAE
SAE
SAE
SAE
SAE
SAE
SAE
SAE
SAE
SAE
SAE
SAE
SAE
SAE
SAE
SAE
SAE
SAE
SAE
SAE
SAE
SAE
SAE
SAE
SAE
SAE
SAE
SAE
SAE
SAE
SAE
SAE
SAE
SAE
SAE
SAE
SAE
SAE
SAE
SAE
SAE
SAE
SAE
SAE
SAE
SAE
SAE
SAE
SAE
SAE
SAE
SAE
SAE
SAE
SAE
SAE
SAE
SAE
SAE
SAE
SAE
SAE
SAE
SAE
SAE
SAE
SAE
SAE
SAE
SAE
SAE
SAE
SAE
SAE
SAE
SAE
SAE
SAE
SAE
SAE
SAE
SAE
SAE
SAE
SAE
SAE
SAE
SAE
SAE
SAE
SAE
SAE
SAE
SAE
SAE
SAE
SAE
SAE
SAE
SAE
SAE
SAE
SAE
SAE
SAE
SAE
SAE
SAE
SAE
SAE
SAE
SAE
SAE
SAE
SAE
SAE
SAE
SAE
SAE
SAE
SAE
SAE
SAE
SAE
SAE
SAE
SAE
SAE
SAE
SAE
SAE
SAE
SAE
SAE
SAE
SAE
SAE
SAE
SAE
SAE
SAE
SAE
SAE
SAE
SAE
SAE
SAE
SAE
SAE
SAE
SAE
SAE
SAE
SAE
SAE
SAE
SAE
SAE
SAE
SAE
SAE
SAE
SAE
SAE
SAE
SAE
SAE
SAE
SAE
SAE
SAE
SAE
SAE
SAE
SAE
SAE
SAE
SAE
SAE
SAE
SAE
SAE
SAE
SAE
SAE
SAE
SAE
SAE
SAE
SAE
SAE
SAE
SAE
SAE
SAE
SAE
SAE
SAE
SAE
SAE
SAE
SAE
SAE
SAE
SAE
SAE
SAE
SAE
SAE
SAE
SAE
SAE
SAE
SAE
SAE
SAE
SAE
SAE
SAE
SAE
SAE
SAE
SAE
SAE
SAE
SAE
SAE
SAE
SAE
SAE
SAE
SAE
SAE
SAE
SAE
SAE
SAE
SAE
SAE
SAE
SAE
SAE
SAE
SAE
SAE
SAE
SAE
SAE
SAE
SAE
SAE
SAE
SAE
SAE
SAE
SAE
SAE
SAE
SAE
SAE
SAE
SAE
SAE
SAE
SAE
SAE
SAE
SAE
SAE
SAE
SAE
SAE
SAE
SAE
SAE
SAE
SAE
SAE
SAE
SAE
SAE
SAE
SAE
SAE
SAE
SAE
SAE
SAE
SAE
SAE
SAE
SAE
SAE
SAE
SAE
SAE
SAE
SAE
SAE
SAE
SAE
SAE
SAE
SAE
SAE
SAE
SAE
SAE
SAE
SAE
SAE
SAE
SAE
SAE
SAE
SAE
SAE
SAE
SAE
SAE
SAE
SAE
SAE
SAE
SAE
SAE
SAE
SAE
SAE
SAE
SAE
SAE
SAE
SAE
SAE
SAE
SAE
SAE
SAE
SAE
SAE
SAE
SAE
SAE
SAE
SAE
SAE
SAE
SAE
SAE
SAE
SAE
SAE
SAE
SAE
SAE
SAE
SAE
SAE
SAE
SAE
SAE
SAE
SAE
SAE
SAE
SAE
SAE
SAE
SAE
SAE
SAE
SAE
SAE
SAE
SAE
SAE
SAE
SAE
SAE
SAE
SAE
SAE
SAE
SAE
SAE
SAE
SAE
SAE
SAE
SAE
SAE
SAE
SAE
SAE
SAE
SAE
SAE
SAE
SAE
SAE
SAE
SAE
SAE
SAE
SAE
SAE
SAE
SAE
SAE
SAE
SAE
SAE
SAE
SAE
SAE
SAE
SAE
SAE
SAE
SAE
SAE
SAE
SAE
SAE
SAE
SAE
SAE
SAE
SAE
SAE
SAE
SAE
SAE
SAE
SAE
SAE
SAE
SAE
SAE
SAE
SAE
SAE
SAE
SAE
SAE
SAE
SAE
SAE
SAE
SAE
SAE
SAE
SAE
SAE
SAE
SAE
SAE
SAE
SAE
SAE
SAE
SAE
SAE
SAE
SAE
SAE
SAE
SAE
SAE
SAE
SAE
SAE
SAE
SAE
SAE
SAE
SAE
SAE
SAE
SAE
SAE
SAE
SAE
SAE
SAE
SAE
SAE
SAE
SAE
SAE
SAE
SAE
SAE
SAE
SAE
SAE
SAE
SAE
SAE
SAE
SAE
SAE
SAE
SAE
SAE
SAE
SAE
SAE
SAE
SAE
SAE
SAE
SAE
SAE
SAE
SAE
SAE
SAE
SAE
SAE
SAE
SAE
SAE
SAE
SAE
SAE
SAE
SAE
SAE
SAE
SAE
SAE
SAE
SAE
SAE
SAE
SAE
SAE
SAE
SAE
SAE
SAE
SAE
SAE
SAE
SAE
SAE
SAE
SAE
SAE
SAE
SAE
SAE
SAE
SAE
SAE
SAE
SAE
SAE
SAE
SAE
SAE
SAE
SAE
SAE
SAE
SAE
SAE
SAE
SAE
SAE
SAE
SAE
SAE
SAE
SAE
SAE
SAE
SAE
SAE
SAE
SAE
SAE
SAE
SAE
SAE
SAE
SAE
SAE
SAE
SAE
SAE
SAE
SAE
SAE
SAE
SAE
SAE
SAE
SAE
SAE
SAE
SAE
SAE
SAE
SAE
SAE
SAE
SAE
SAE
SAE
SAE
SAE
SAE
SAE
SAE
SAE
SAE
SAE
SAE
SAE
SAE
SAE
SAE
SAE
SAE
SAE
SAE
SAE
SAE
SAE
SAE
SAE
SAE
SAE
SAE
SAE
SAE
SAE
SAE
SAE
SAE
SAE
SAE
SAE
SAE
SAE
SAE
SAE
SAE
SAE
SAE
SAE
SAE
SAE
SAE
SAE
SAE
SAE
SAE
SAE
SAE
SAE
SAE
SAE
SAE
SAE
SAE
SAE
SAE
SAE
SAE
SAE
SAE
SAE
SAE
SAE
SAE
SAE
SAE
SAE
SAE
SAE
SAE
SAE
SAE
SAE
SAE
SAE
SAE
SAE
SAE
SAE
SAE
SAE
SAE
SAE
SAE
SAE
SAE
SAE
SAE
SAE
SAE
SAE
SAE
SAE
SAE
SAE
SAE
SAE
SAE
SAE
SAE
SAE
SAE
SAE
SAE
SAE
SAE
SAE
SAE
SAE
SAE
SAE
SAE
SAE
SAE
SAE
SAE
SAE
SAE
SAE
SAE
SAE
SAE
SAE
SAE
SAE
SAE
SAE
SAE
SAE
SAE
SAE
SAE
SAE
SAE
SAE
SAE
SAE
SAE
SAE
SAE
SAE
SAE
SAE
SAE
SAE
SAE
SAE
SAE
SAE
SAE
SAE
SAE
SAE
SAE
SAE
SAE
SAE
SAE
SAE
SAE
SAE
SAE
SAE
SAE
SAE
SAE
SAE
SAE
SAE
SAE
SAE
SAE
SAE
SAE
SAE
SAE
SAE
SAE
SAE
SAE
SAE
SAE
SAE
SAE
SAE
SAE
SAE
SAE
SAE
SAE
SAE
SAE
SAE
SAE
SAE
SAE
SAE
SAE
SAE
SAE
SAE
SAE
SAE
SAE
SAE
SAE
SAE
SAE
SAE
SAE
SAE
SAE
SAE
SAE
SAE
SAE
SAE
SAE
SAE
SAE
SAE
SAE
SAE
SAE
SAE
SAE
SAE
SAE
SAE
SAE
SAE
SAE
SAE
SAE
SAE
SAE
SAE
SAE
SAE
SAE
SAE
SAE
SAE
SAE
SAE
SAE
SAE
SAE
SAE
SAE
SAE
SAE
SAE
SAE
SAE
SAE
SAE
SAE
SAE
SAE
SAE
SAE
SAE
SAE
SAE
SAE
SAE
SAE
SAE
SAE
SAE
SAE
SAE
SAE
SAE
SAE
SAE
SAE
SAE
SAE
SAE
SAE
SAE
SAE
SAE
SAE
SAE
SAE
SAE
SAE
SAE
SAE
SAE
SAE
SAE
SAE
SAE
SAE
SAE
SAE
SAE
SAE
SAE
SAE
SAE
SAE
SAE
SAE
SAE
SAE
SAE
SAE
SAE
SAE
SAE
SAE
SAE
SAE
SAE
SAE
SAE
SAE
SAE
SAE
SAE
SAE
SAE
SAE
SAE
SAE
SAE
SAE
SAE
SAE
SAE
SAE
SAE
SAE
SAE
SAE
SAE
SAE
SAE
SAE
SAE
SAE
SAE
SAE
SAE
SAE
SAE
SAE
SAE
SAE
SAE
SAE
SAE
SAE
SAE
SAE
SAE
SAE
SAE
SAE
SAE
SAE
SAE
SAE
SAE
SAE
SAE
SAE
SAE
SAE
SAE
SAE
SAE
SAE
SAE
SAE
SAE
SAE
SAE
SAE
SAE
SAE
SAE
SAE
SAE
SAE
SAE
SAE
SAE
SAE
SAE
SAE
SAE
SAE
SAE
SAE
SAE
SAE
SAE
SAE
SAE
SAE
SAE
SAE
SAE
SAE
SAE
SAE
SAE
SAE
SAE
SAE
SAE
SAE
SAE
SAE
SAE
SAE
SAE
SAE
SAE
SAE
SAE
SAE
SAE
SAE
SAE
SAE
SAE
SAE
SAE
SAE
SAE
SAE
SAE
SAE
SAE
SAE
SAE
SAE
SAE
SAE
SAE
SAE
SAE
SAE
SAE
SAE
SAE
SAE
SAE
SAE
SAE
SAE
SAE
SAE
SAE
SAE
SAE
SAE
SAE
SAE
SAE
SAE
SAE
SAE
SAE
SAE
SAE
SAE
SAE
SAE
SAE
SAE
SAE
SAE
SAE
SAE
SAE
SAE
SAE
SAE
SAE
SAE
SAE
SAE
SAE
SAE
SAE
SAE
SAE
SAE
SAE
SAE
SAE
SAE
SAE
SAE
SAE
SAE
SAE
SAE
SAE
SAE
SAE
SAE
SAE
SAE
SAE
SAE
SAE
SAE
SAE
SAE
SAE
SAE
SAE
SAE
SAE
SAE
SAE
SAE
SAE
SAE
SAE
SAE
SAE
SAE
SAE
SAE
SAE
SAE
SAE
SAE
SAE
SAE
SAE
SAE
SAE
SAE
SAE
SAE
SAE
SAE
SAE
SAE
SAE
SAE
SAE
SAE
SAE
SAE
SAE
SAE
SAE
SAE
SAE
SAE
SAE
SAE
SAE
SAE
SAE
SAE
SAE
SAE
SAE
SAE
SAE
SAE
SAE
SAE
SAE
SAE
SAE
SAE
SAE
SAE
SAE
SAE
SAE
SAE
SAE
SAE
SAE
SAE
SAE
SAE
SAE
SAE
SAE
SAE
SAE
SAE
SAE
SAE
SAE
SAE
SAE
SAE
SAE
SAE
SAE
SAE
SAE
SAE
SAE
SAE
SAE
SAE
SAE
SAE
SAE
SAE
SAE
SAE
SAE
SAE
SAE
SAE
SAE
SAE
SAE
SAE
SAE
SAE
SAE
SAE
SAE
SAE
SAE
SAE
SAE
SAE
SAE
SAE
SAE
SAE
SAE
SAE
SAE
SAE
SAE
SAE
SAE
SAE
SAE
SAE
SAE
SAE
SAE
SAE
SAE
SAE
SAE
SAE
SAE
SAE
SAE
SAE
SAE
SAE
SAE
SAE
SAE
SAE
SAE
SAE
SAE
SAE
SAE
SAE
SAE
SAE
SAE
SAE
SAE
SAE
SAE
SAE
SAE
SAE
SAE
SAE
SAE
SAE
SAE
SAE
SAE
SAE
SAE
SAE
SAE
SAE
SAE
SAE
SAE
SAE
SAE
SAE
SAE
SAE
SAE
SAE
SAE
SAE
SAE
SAE
SAE
SAE
SAE
SAE
SAE
SAE
SAE
SAE
SAE
SAE
SAE
SAE
SAE
SAE
SAE
SAE
SAE
SAE
SAE
SAE
SAE
SAE
SAE
SAE
SAE
SAE
SAE
SAE
SAE
SAE
SAE
SAE
SAE
SAE
SAE
SAE
SAE
SAE
SAE
SAE
SAE
SAE
SAE
SAE
SAE
SAE
SAE
SAE
SAE
SAE
SAE
SAE
SAE
SAE
SAE
SAE
SAE
SAE
SAE
SAE
SAE
SAE
SAE
SAE
SAE
SAE
SAE
SAE
SAE
SAE
SAE
SAE
SAE
SAE
SAE
SAE
SAE
SAE
SAE
SAE
SAE
SAE
SAE
SAE
SAE
SAE
SAE
SAE
SAE
SAE
SAE
SAE
SAE
SAE
SAE
SAE
SAE
SAE
SAE
SAE
SAE
SAE
SAE
SAE
SAE
SAE
SAE
SAE
SAE
SAE
SAE
SAE
SAE
SAE
SAE
SAE
SAE
SAE
SAE
SAE
SAE
SAE
SAE
SAE
SAE
SAE
SAE
SAE
SAE
SAE
SAE
SAE
SAE
SAE
SAE
SAE
SAE
SAE
SAE
SAE
SAE
SAE
SAE
SAE
SAE
SAE
SAE
SAE
SAE
SAE
SAE
SAE
SAE
SAE
SAE
SAE
SAE
SAE
SAE
SAE
SAE
SAE
SAE
SAE
SAE
SAE
SAE
SAE
SAE
SAE
SAE
SAE
SAE
SAE
SAE
SAE
SAE
SAE
SAE
SAE
SAE
SAE
SAE
SAE
SAE
SAE
SAE
SAE
SAE
SAE
SAE
SAE
SAE
SAE
SAE
SAE
SAE
SAE
SAE
SAE
SAE
SAE
SAE
SAE
SAE
SAE
SAE
SAE
SAE
SAE
SAE
SAE
SAE
SAE
SAE
SAE
SAE
SAE
SAE
SAE
SAE
SAE
SAE
SAE
SAE
SAE
SAE
SAE
SAE
SAE
SAE
SAE
SAE
SAE
SAE
SAE
SAE
SAE
SAE
SAE
SAE
SAE
SAE
SAE
SAE
SAE
SAE
SAE
SAE
SAE
SAE
SAE
SAE
SAE
SAE
SAE
SAE
SAE
SAE
SAE
SAE
SAE
SAE
SAE
SAE
SAE
SAE
SAE
SAE
SAE
SAE
SAE
SAE
SAE
SAE
SAE
SAE
SAE
SAE
SAE
SAE
SAE
SAE
SAE
SAE
SAE
SAE
SAE
SAE
SAE
SAE
SAE
SAE
SAE
SAE
SAE
SAE
SAE
SAE
SAE
SAE
SAE
SAE
SAE
SAE
SAE
SAE
SAE
SAE
SAE
SAE
SAE
SAE
SAE
SAE
SAE
SAE
SAE
SAE
SAE
SAE
SAE
SAE
SAE
SAE
SAE
SAE
SAE
SAE
SAE
SAE
SAE
SAE
SAE
SAE
SAE
SAE
SAE
SAE
SAE
SAE
SAE
SAE
SAE
SAE
SAE
SAE
SAE
SAE
SAE
SAE
SAE
SAE
SAE
SAE
SAE
SAE
SAE
SAE
SAE
SAE
SAE
SAE
SAE
SAE
SAE
SAE
SAE
SAE
SAE
SAE
SAE
SAE
SAE
SAE
SAE
SAE
SAE
SAE
SAE
SAE
SAE
SAE
SAE
SAE
SAE
SAE
SAE
SAE
SAE
SAE
SAE
SAE
SAE
SAE
SAE
SAE
SAE
SAE
SAE
SAE
SAE
SAE
SAE
SAE
SAE
SAE
SAE
SAE
SAE
SAE
SAE
SAE
SAE
SAE
SAE
SAE
SAE
SAE
SAE
SAE
SAE
SAE
SAE
SAE
SAE
SAE
SAE
SAE
SAE
SAE
SAE
SAE
SAE
SAE
SAE
SAE
SAE
SAE
SAE
SAE
SAE
SAE
SAE
SAE
SAE
SAE
SAE
SAE
SAE
SAE
SAE
SAE
SAE
SAE
SAE
SAE
SAE
SAE
SAE
SAE
SAE
SAE
SAE
SAE
SAE
SAE
SAE
SAE
SAE
SAE
SAE
SAE
SAE
SAE
SAE
SAE
SAE
SAE
SAE
SAE
SAE
SAE
SAE
SAE
SAE
SAE
SAE
SAE
SAE
SAE
SAE
SAE
SAE
SAE
SAE
SAE
SAE
SAE
SAE
SAE
SAE
SAE
SAE
SAE
SAE
SAE
SAE
SAE
SAE
SAE
SAE
SAE
SAE
SAE
SAE
SAE
SAE
SAE
SAE
SAE
SAE
SAE
SAE
SAE
SAE
SAE
SAE
SAE
SAE
SAE
SAE
SAE
SAE
SAE
SAE
SAE
SAE
SAE
SAE
SAE
SAE
SAE
SAE
SAE
SAE
SAE
SAE
SAE
SAE
SAE
SAE
SAE
SAE
SAE
SAE
SAE
SAE
SAE
SAE
SAE
SAE
SAE
SAE
SAE
SAE
SAE
SAE
SAE
SAE
SAE
SAE
SAE
SAE
SAE
SAE
SAE
SAE
SAE
SAE
SAE
SAE
SAE
SAE
SAE
SAE
SAE
SAE
SAE
SAE
SAE
SAE
SAE
SAE
SAE
SAE
SAE
SAE
SAE
SAE
SAE
SAE
SAE
SAE
SAE
SAE
SAE
SAE
SAE
SAE
SAE
SAE
SAE
SAE
SAE
SAE
SAE
SAE
SAE
SAE
SAE
SAE
SAE
SAE
SAE
SAE
SAE
SAE
SAE
SAE
SAE
SAE
SAE
SAE
SAE
SAE
SAE
SAE
SAE
SAE
SAE
SAE
SAE
SAE
SAE
SAE
SAE
SAE
SAE
SAE
SAE
SAE
SAE
SAE
SAE
SAE
SAE
SAE
SAE
SAE
SAE
SAE
SAE
SAE
SAE
SAE
SAE
SAE
SAE
SAE
SAE
SAE
SAE
SAE
SAE
SAE
SAE
SAE
SAE
SAE
SAE
SAE
SAE
SAE
SAE
SAE
SAE
SAE
SAE
SAE
SAE
SAE
SAE
SAE
SAE
SAE
SAE
SAE
SAE
SAE
SAE
SAE
SAE
SAE
SAE
SAE
SAE
SAE
SAE
SAE
SAE
SAE
SAE
SAE
SAE
SAE
SAE
SAE
SAE
SAE
SAE
SAE
SAE
SAE
SAE
SAE
SAE
SAE
SAE
SAE
SAE
SAE
SAE
SAE
SAE
SAE
SAE
SAE
SAE
SAE
SAE
SAE
SAE
SAE
SAE
SAE
SAE
SAE
SAE
SAE
SAE
SAE
SAE
SAE
SAE
SAE
SAE
SAE
SAE
SAE
SAE
SAE
SAE
SAE
SAE
SAE
SAE
SAE
SAE
SAE
SAE
SAE
SAE
SAE
SAE
SAE
SAE
SAE
SAE
SAE
SAE
SAE
SAE
SAE
SAE
SAE
SAE
SAE
SAE
SAE
SAE
SAE
SAE
SAE
SAE
SAE
SAE
SAE
SAE
SAE
SAE
SAE
SAE
SAE
SAE
SAE
SAE
SAE
SAE
SAE
SAE
SAE
SAE
SAE
SAE
SAE
SAE
SAE
SAE
SAE
SAE
SAE
SAE
SAE
SAE
SAE
SAE
SAE
SAE
SAE
SAE
SAE
SAE
SAE
SAE
SAE
SAE
SAE
SAE
SAE
SAE
SAE
SAE
SAE
SAE
SAE
SAE
SAE
SAE
SAE
SAE
SAE
SAE
SAE
SAE
SAE
SAE
SAE
SAE
SAE
SAE
SAE
SAE
SAE
SAE
SAE
SAE
SAE
SAE
SAE
SAE
SAE
SAE
SAE
SAE
SAE
SAE
SAE
SAE
SAE
SAE
SAE
SAE
SAE
SAE
SAE
SAE
SAE
SAE
SAE
SAE
SAE
SAE
SAE
SAE
SAE
SAE
SAE
SAE
SAE
SAE
SAE
SAE
SAE
SAE
SAE
SAE
SAE
SAE
SAE
SAE
SAE
SAE
SAE
SAE
SAE
SAE
SAE
SAE
SAE
SAE
SAE
SAE
SAE
SAE
SAE
SAE
SAE
SAE
SAE
SAE
SAE
SAE
SAE
SAE
SAE
SAE
SAE
SAE
SAE
SAE
SAE
SAE
SAE
SAE
SAE
SAE
SAE
SAE
SAE
SAE
SAE
SAE
SAE
SAE
SAE
SAE
SAE
SAE
SAE
SAE
SAE
SAE
SAE
SAE
SAE
SAE
SAE
SAE
SAE
SAE
SAE
SAE
SAE
SAE
SAE
SAE
SAE
SAE
SAE
SAE
SAE
SAE
SAE
SAE
SAE
SAE
SAE
SAE
SAE
SAE
SAE
SAE
SAE
SAE
SAE
SAE
SAE
SAE
SAE
SAE
SAE
SAE
SAE
SAE
SAE
SAE
SAE
SAE
SAE
SAE
SAE
SAE
SAE
SAE
SAE
SAE
SAE
SAE
SAE
SAE
SAE
SAE
SAE
SAE
SAE
SAE
SAE
SAE
SAE
SAE
SAE
SAE
SAE
SAE
SAE
SAE
SAE
SAE
SAE
SAE
SAE
SAE
SAE
SAE
SAE
SAE
SAE
SAE
SAE
SAE
SAE
SAE
SAE
SAE
SAE
SAE
SAE
SAE
SAE
SAE
SAE
SAE
SAE
SAE
SAE
SAE
SAE
SAE
SAE
SAE
SAE
SAE
SAE
SAE
SAE
SAE
SAE
SAE
SAE
SAE
SAE
SAE
SAE
SAE
SAE
SAE
SAE
SAE
SAE
SAE
SAE
SAE
SAE
SAE
SAE
SAE
SAE
SAE
SAE
SAE
SAE
SAE
SAE
SAE
SAE
SAE
SAE
SAE
SAE
SAE
SAE
SAE
SAE
SAE
SAE
SAE
SAE
SAE
SAE
SAE
SAE
SAE
SAE
SAE
SAE
SAE
SAE
SAE
SAE
SAE
SAE
SAE
SAE
SAE
SAE
SAE
SAE
SAE
SAE
SAE
SAE
SAE
SAE
SAE
SAE
SAE
SAE
SAE
SAE
SAE
SAE
SAE
SAE
SAE
SAE
SAE
SAE
SAE
SAE
SAE
SAE
SAE
SAE
SAE
SAE
SAE
SAE
SAE
SAE
SAE
SAE
SAE
SAE
SAE
SAE
SAE
SAE
SAE
SAE
SAE
SAE
SAE
SAE
SAE
SAE
SAE
SAE
SAE
SAE
SAE
SAE
SAE
SAE
SAE
SAE
SAE
SAE
SAE
SAE
SAE
SAE
SAE
SAE
SAE
SAE
SAE
SAE
SAE
SAE
SAE
SAE
SAE
SAE
SAE
SAE
SAE
SAE
SAE
SAE
SAE
SAE
SAE
SAE
SAE
SAE
SAE
SAE
SAE
SAE
SAE
SAE
SAE
SAE
SAE
SAE
SAE
SAE
SAE
SAE
SAE
SAE
SAE
SAE
SAE
SAE
SAE
SAE
SAE
SAE
SAE
SAE
SAE
SAE
SAE
SAE
SAE
SAE
SAE
SAE
SAE
SAE
SAE
SAE
SAE
SAE
SAE
SAE
SAE
SAE
SAE
SAE
SAE
SAE
SAE
SAE
SAE
SAE
SAE
SAE
SAE
SAE
SAE
SAE
SAE
SAE
SAE
SAE
SAE
SAE
SAE
SAE
SAE
SAE
SAE
SAE
SAE
SAE
SAE
SAE
SAE
SAE
SAE
SAE
SAE
SAE
SAE
SAE
SAE
SAE
SAE
SAE
SAE
SAE
SAE
SAE
SAE
SAE
SAE
SAE
SAE
SAE
SAE
SAE
SAE
SAE
SAE
SAE
SAE
SAE
SAE
SAE
SAE
SAE
SAE
SAE
SAE
SAE
SAE
SAE
SAE
SAE
SAE
SAE
SAE
SAE
SAE
SAE
SAE
SAE
SAE
SAE
SAE
SAE
SAE
SAE
SAE
SAE
SAE
SAE
SAE
SAE
SAE
SAE
SAE
SAE
SAE
SAE
SAE
SAE
SAE
SAE
SAE
SAE
SAE
SAE
SAE
SAE
SAE
SAE
SAE
SAE
SAE
SAE
SAE
SAE
SAE
SAE
SAE
SAE
SAE
SAE
SAE
SAE
SAE
SAE
SAE
SAE
SAE
SAE
SAE
SAE
SAE
SAE
SAE
SAE
SAE
SAE
SAE
SAE
SAE
SAE
SAE
SAE
SAE
SAE
SAE
SAE
SAE
SAE
SAE
SAE
SAE
SAE
SAE
SAE
SAE
SAE
SAE
SAE
SAE
SAE
SAE
SAE
SAE
SAE
SAE
SAE
SAE
SAE
SAE
SAE
SAE
SAE
SAE
SAE
SAE
SAE
SAE
SAE
SAE
SAE
SAE
SAE
SAE
SAE
SAE
SAE
SAE
SAE
SAE
SAE
SAE
SAE
SAE
SAE
SAE
SAE
SAE
SAE
SAE
SAE
SAE
SAE
SAE
SAE
SAE
SAE
SAE
SAE
SAE
SAE
SAE
SAE
SAE
SAE
SAE
SAE
SAE
SAE
SAE
SAE
SAE
SAE
SAE
SAE
SAE
SAE
SAE
SAE
SAE
SAE
SAE
SAE
SAE
SAE
SAE
SAE
SAE
SAE
SAE
SAE
SAE
SAE
SAE
SAE
SAE
SAE
SAE
SAE
SAE
SAE
SAE
SAE
SAE
SAE
SAE
SAE
SAE
SAE
SAE
SAE
SAE
SAE
SAE
SAE
SAE
SAE
SAE
SAE
SAE
SAE
SAE
SAE
SAE
SAE
SAE
SAE
SAE
SAE
SAE
SAE
SAE
SAE
SAE
SAE
SAE
SAE
SAE
SAE
SAE
SAE
SAE
SAE
SAE
SAE
SAE
SAE
SAE
SAE
SAE
SAE
SAE
SAE
SAE
SAE
SAE
SAE
SAE
SAE
SAE
SAE
SAE
SAE
SAE
SAE
SAE
SAE
SAE
SAE
SAE
SAE
SAE
SAE
SAE
SAE
SAE
SAE
SAE
SAE
SAE
SAE
SAE
SAE
SAE
SAE
SAE
SAE
SAE
SAE
SAE
SAE
SAE
SAE
SAE
SAE
SAE
SAE
SAE
SAE
SAE
SAE
SAE
SAE
SAE
SAE
SAE
SAE
SAE
SAE
SAE
SAE
SAE
SAE
SAE
SAE
SAE
SAE
SAE
SAE
SAE
SAE
SAE
SAE
SAE
SAE
SAE
SAE
SAE
SAE
SAE
SAE
SAE
SAE
SAE
SAE
SAE
SAE
SAE
SAE
SAE
SAE
SAE
SAE
SAE
SAE
SAE
SAE
SAE
SAE
SAE
SAE
SAE
SAE
SAE
SAE
SAE
SAE
SAE
SAE
SAE
SAE
SAE
SAE
SAE
SAE
SAE
SAE
SAE
SAE
SAE
SAE
SAE
SAE
SAE
SAE
SAE
SAE
SAE
SAE
SAE
SAE
SAE
SAE
SAE
SAE
SAE
SAE
SAE
SAE
SAE
SAE
SAE
SAE
SAE
SAE
SAE
SAE
SAE
SAE
SAE
SAE
SAE
SAE
SAE
SAE
SAE
SAE
SAE
SAE
SAE
SAE
SAE
SAE
SAE
SAE
SAE
SAE
SAE
SAE
SAE
SAE
SAE
SAE
SAE
SAE
SAE
SAE
SAE
SAE
SAE
SAE
SAE
SAE
SAE
SAE
SAE
SAE
SAE
SAE
SAE
SAE
SAE
SAE
SAE
SAE
SAE
SAE
SAE
SAE
SAE
SAE
SAE
SAE
SAE
SAE
SAE
SAE
SAE
SAE
SAE
SAE
SAE
SAE
SAE
SAE
SAE
SAE
SAE
SAE
SAE
SAE
SAE
SAE
SAE
SAE
SAE
SAE
SAE
SAE
SAE
SAE
SAE
SAE
SAE
SAE
SAE
SAE
SAE
SAE
SAE
SAE
SAE
SAE
SAE
SAE
SAE
SAE
SAE
SAE
SAE
SAE
SAE
SAE
SAE
SAE
SAE
SAE
SAE
SAE
SAE
SAE
SAE
SAE
SAE
SAE
SAE
SAE
SAE
SAE
SAE
SAE
SAE
SAE
SAE
SAE
SAE
SAE
SAE
SAE
SAE
SAE
SAE
SAE
SAE
SAE
SAE
SAE
SAE
SAE
SAE
SAE
SAE
SAE
SAE
SAE
SAE
SAE
SAE
SAE
SAE
SAE
SAE
SAE
SAE
SAE
SAE
SAE
SAE
SAE
SAE
SAE
SAE
SAE
SAE
SAE
SAE
SAE
SAE
SAE
SAE
SAE
SAE
SAE
SAE
SAE
SAE
SAE
SAE
SAE
SAE
SAE
SAE
SAE
SAE
SAE
SAE
SAE
SAE
SAE
SAE
SAE
SAE
SAE
SAE
SAE
SAE
SAE
SAE
SAE
SAE
SAE
SAE
SAE
SAE
SAE
SAE
SAE
SAE
SAE
SAE
SAE
SAE
SAE
SAE
SAE
SAE
SAE
SAE
SAE
SAE
SAE
SAE
SAE
SAE
SAE
SAE
SAE
SAE
SAE
SAE
SAE
SAE
SAE
SAE
SAE
SAE
SAE
SAE
SAE
SAE
SAE
SAE
SAE
SAE
SAE
SAE
SAE
SAE
SAE
SAE
SAE
SAE
SAE
SAE
SAE
SAE
SAE
SAE
SAE
SAE
SAE
SAE
SAE
SAE
SAE
SAE
SAE
SAE
SAE
SAE
SAE
SAE
SAE
SAE
SAE
SAE
SAE
SAE
SAE
SAE
SAE
SAE
SAE
SAE
SAE
SAE
SAE
SAE
SAE
SAE
SAE
SAE
SAE
SAE
SAE
SAE
SAE
SAE
SAE
SAE
SAE
SAE
SAE
SAE
SAE
SAE
SAE
SAE
SAE
SAE
SAE
SAE
SAE
SAE
SAE
SAE
SAE
SAE
SAE
SAE
SAE
SAE
SAE
SAE
SAE
SAE
SAE
SAE
SAE
SAE
SAE
SAE
SAE
SAE
SAE
SAE
SAE
SAE
SAE
SAE
SAE
SAE
SAE
SAE
SAE
SAE
SAE
SAE
SAE
SAE
SAE
SAE
SAE
SAE
SAE
SAE
SAE
SAE
SAE
SAE
SAE
SAE
SAE
SAE
SAE
SAE
SAE
SAE
SAE
SAE
SAE
SAE
SAE
SAE
SAE
SAE
SAE
SAE
SAE
SAE
SAE
SAE
SAE
SAE
SAE
SAE
SAE
[...]
SAE
SAE
SAE
SAE
SAE
SAE
SAE
SAE
SAE
SAE
SAE
SAE
SAE
SAE
SAE
SAE
SAE
SAE
SAE
SAE
SAE
SAE
SAE
SAE
SAE
SAE
SAE
SAE
SAE
SAE
SAE
SAE
SAE
SAE
SAE
SAE
SAE
SAE
SAE
SAE
SAE
SAE
SAE
SAE
SAE
SAE
SAE
SAE
SAE
SAE
SAE
SAE
SAE
SAE
SAE
SAE
SAE
SAE
SAE
SAE
SAE
SAE
SAE
SAE
SAE
SAE
SAE
SAE
SAE
SAE
SAE
SAE
SAE
SAE
SAE
SAE
SAE
SAE
SAE
SAE
SAE
SAE
SAE
SAE
SAE
SAE
SAE
SAE
SAE
SAE
SAE
SAE
SAE
SAE
SAE
SAE
SAE
SAE
SAE
SAE
SAE
SAE
SAE
SAE
SAE
SAE
SAE
SAE
SAE
SAE
SAE
SAE
SAE
SAE
SAE
SAE
SAE
SAE
SAE
SAE
SAE
SAE
SAE
SAE
SAE
SAE
SAE
SAE
SAE
SAE
SAE
SAE
SAE
SAE
SAE
SAE
SAE
SAE
SAE
SAE
SAE
SAE
SAE
SAE
SAE
SAE
SAE
SAE
SAE
SAE
SAE
SAE
SAE
SAE
SAE
SAE
SAE
SAE
SAE
SAE
SAE
SAE
SAE
SAE
SAE
SAE
SAE
SAE
SAE
SAE
SAE
SAE
SAE
SAE
SAE
SAE
SAE
SAE
SAE
SAE
SAE
SAE
SAE
SAE
SAE
SAE
SAE
SAE
SAE
SAE
SAE
SAE
SAE
SAE
SAE
SAE
SAE
SAE
SAE
SAE
SAE
SAE
SAE
SAE
SAE
SAE
SAE
SAE
SAE
SAE
SAE
SAE
SAE
SAE
SAE
SAE
SAE
SAE
SAE
SAE
SAE
SAE
SAE
SAE
SAE
SAE
SAE
SAE
SAE
SAE
SAE
SAE
SAE
SAE
SAE
SAE
SAE
SAE
SAE
SAE
SAE
SAE
SAE
SAE
SAE
SAE
SAE
SAE
SAE
SAE
SAE
SAE
SAE
SAE
SAE
SAE
SAE
SAE
SAE
SAE
SAE
SAE
SAE
SAE
SAE
SAE
SAE
SAE
SAE
SAE
SAE
SAE
SAE
SAE
SAE
SAE
SAE
SAE
SAE
SAE
SAE
SAE
SAE
SAE
SAE
SAE
SAE
SAE
SAE
SAE
SAE
SAE
SAE
SAE
SAE
SAE
SAE
SAE
SAE
SAE
SAE
SAE
SAE
SAE
SAE
SAE
SAE
SAE
SAE
SAE
SAE
SAE
SAE
SAE
SAE
SAE
SAE
SAE
SAE
SAE
SAE
SAE
SAE
SAE
SAE
SAE
SAE
SAE
SAE
SAE
SAE
SAE
SAE
SAE
SAE
SAE
SAE
SAE
SAE
SAE
SAE
SAE
SAE
SAE
SAE
SAE
SAE
SAE
SAE
SAE
SAE
SAE
SAE
SAE
SAE
SAE
SAE
SAE
SAE
SAE
SAE
SAE
SAE
SAE
SAE
SAE
SAE
SAE
SAE
SAE
SAE
SAE
SAE
SAE
SAE
SAE
SAE
SAE
SAE
SAE
SAE
SAE
SAE
SAE
SAE
SAE
SAE
SAE
SAE
SAE
SAE
SAE
SAE
SAE
SAE
SAE
SAE
SAE
SAE
SAE
SAE
SAE
SAE
SAE
SAE
SAE
SAE
SAE
SAE
SAE
SAE
SAE
SAE
SAE
SAE
SAE
SAE
SAE
SAE
SAE
SAE
SAE
SAE
SAE
SAE
SAE
SAE
SAE
SAE
SAE
SAE
SAE
SAE
SAE
SAE
SAE
SAE
SAE
SAE
SAE
SAE
SAE
SAE
SAE
SAE
SAE
SAE
SAE
SAE
SAE
SAE
SAE
SAE
SAE
SAE
SAE
SAE
SAE
SAE
SAE
SAE
SAE
SAE
SAE
SAE
SAE
SAE
SAE
SAE
SAE
SAE
SAE
SAE
SAE
SAE
SAE
SAE
SAE
SAE
SAE
SAE
SAE
SAE
SAE
SAE
SAE
SAE
SAE
SAE
SAE
SAE
SAE
SAE
SAE
SAE
SAE
SAE
SAE
SAE
SAE
SAE
SAE
SAE
SAE
SAE
SAE
SAE
SAE
SAE
SAE
SAE
SAE
SAE
SAE
SAE
SAE
SAE
SAE
SAE
SAE
SAE
SAE
SAE
SAE
SAE
SAE
SAE
SAE
SAE
SAE
SAE
SAE
SAE
SAE
SAE
SAE
SAE
SAE
SAE
SAE
SAE
SAE
SAE
SAE
SAE
SAE
SAE
SAE
SAE
SAE
SAE
SAE
SAE
SAE
SAE
SAE
SAE
SAE
SAE
SAE
SAE
SAE
SAE
SAE
SAE
SAE
SAE
SAE
SAE
SAE
SAE
SAE
SAE
SAE
SAE
SAE
SAE
SAE
SAE
SAE
SAE
SAE
SAE
SAE
SAE
SAE
SAE
SAE
SAE
SAE
SAE
SAE
SAE
SAE
SAE
SAE
SAE
SAE
SAE
SAE
SAE
SAE
SAE
SAE
SAE
SAE
SAE
SAE
SAE
SAE
SAE
SAE
SAE
SAE
SAE
SAE
SAE
SAE
SAE
SAE
SAE
SAE
SAE
SAE
SAE
SAE
SAE
SAE
SAE
SAE
SAE
SAE
SAE
SAE
SAE
SAE
SAE
SAE
SAE
SAE
SAE
SAE
SAE
SAE
SAE
SAE
SAE
SAE
SAE
SAE
SAE
SAE
SAE
SAE
SAE
SAE
SAE
SAE
SAE
SAE
SAE
SAE
SAE
SAE
SAE
SAE
SAE
SAE
SAE
SAE
SAE
SAE
SAE
SAE
SAE
SAE
SAE
SAE
SAE
SAE
SAE
SAE
SAE
SAE
SAE
SAE
SAE
SAE
SAE
SAE
SAE
SAE
SAE
SAE
SAE
SAE
SAE
SAE
SAE
SAE
SAE
SAE
SAE
SAE
SAE
SAE
SAE
SAE
SAE
SAE
SAE
SAE
SAE
SAE
SAE
SAE
SAE
SAE
SAE
SAE
SAE
SAE
SAE
SAE
SAE
SAE
SAE
SAE
SAE
SAE
SAE
SAE
SAE
SAE
SAE
SAE
SAE
SAE
SAE
SAE
SAE
SAE
SAE
SAE
SAE
SAE
SAE
SAE
SAE
SAE
SAE
SAE
SAE
SAE
SAE
SAE
SAE
SAE
SAE
SAE
SAE
SAE
SAE
SAE
SAE
SAE
SAE
SAE
SAE
SAE
SAE
SAE
SAE
SAE
SAE
SAE
SAE
SAE
SAE
SAE
SAE
SAE
SAE
SAE
SAE
SAE
SAE
SAE
SAE
SAE
SAE
SAE
SAE
SAE
SAE
SAE
SAE
SAE
SAE
SAE
SAE
SAE
SAE
SAE
SAE
SAE
SAE
SAE
SAE
SAE
SAE
SAE
SAE
SAE
SAE
SAE
SAE
SAE
SAE
SAE
SAE
SAE
SAE
SAE
SAE
SAE
SAE
SAE
SAE
SAE
SAE
SAE
SAE
SAE
SAE
SAE
SAE
SAE
SAE
SAE
SAE
SAE
SAE
SAE
SAE
SAE
SAE
SAE
SAE
SAE
SAE
SAE
SAE
SAE
SAE
SAE
SAE
SAE
SAE
SAE
SAE
SAE
SAE
SAE
SAE
SAE
SAE
SAE
SAE
SAE
SAE
SAE
SAE
SAE
SAE
SAE
SAE
SAE
SAE
SAE
SAE
SAE
SAE
SAE
SAE
SAE
SAE
SAE
SAE
SAE
SAE
SAE
SAE
SAE
SAE
SAE
SAE
SAE
SAE
SAE
SAE
SAE
SAE
SAE
SAE
SAE
SAE
SAE
SAE
SAE
SAE
SAE
SAE
SAE
SAE
SAE
SAE
SAE
SAE
SAE
SAE
SAE
SAE
SAE
SAE
SAE
SAE
SAE
SAE
SAE
SAE
SAE
SAE
SAE
SAE
SAE
SAE
SAE
SAE
SAE
SAE
SAE
SAE
SAE
SAE
SAE
SAE
SAE
SAE
SAE
SAE
SAE
SAE
SAE
SAE
SAE
SAE
SAE
SAE
SAE
SAE
SAE
SAE
SAE
SAE
SAE
SAE
SAE
SAE
SAE
SAE
SAE
SAE
SAE
SAE
SAE
SAE
SAE
SAE
SAE
SAE
SAE
SAE
SAE
SAE
SAE
SAE
SAE
SAE
SAE
SAE
SAE
SAE
SAE
SAE
SAE
SAE
SAE
SAE
SAE
SAE
SAE
SAE
SAE
SAE
SAE
SAE
SAE
SAE
SAE
SAE
SAE
SAE
SAE
SAE
SAE
SAE
SAE
SAE
SAE
SAE
SAE
SAE
SAE
SAE
SAE
SAE
SAE
SAE
SAE
SAE
SAE
SAE
SAE
SAE
SAE
SAE
SAE
SAE
SAE
SAE
SAE
SAE
SAE
SAE
SAE
SAE
SAE
SAE
SAE
SAE
SAE
SAE
SAE
SAE
SAE
SAE
SAE
SAE
SAE
SAE
SAE
SAE
SAE
SAE
SAE
SAE
SAE
SAE
SAE
SAE
SAE
SAE
SAE
SAE
SAE
SAE
SAE
SAE
SAE
SAE
SAE
SAE
SAE
SAE
SAE
SAE
SAE
SAE
SAE
SAE
SAE
SAE
SAE
SAE
SAE
SAE
SAE
SAE
SAE
SAE
SAE
SAE
SAE
SAE
SAE
SAE
SAE
SAE
SAE
SAE
SAE
SAE
SAE
SAE
SAE
SAE
SAE
SAE
SAE
SAE
SAE
SAE
SAE
SAE
SAE
SAE
SAE
SAE
SAE
SAE
SAE
SAE
SAE
SAE
SAE
SAE
SAE
SAE
SAE
SAE
SAE
SAE
SAE
SAE
SAE
SAE
SAE
SAE
SAE
SAE
SAE
SAE
SAE
SAE
SAE
SAE
SAE
SAE
SAE
SAE
SAE
SAE
SAE
SAE
SAE
SAE
SAE
SAE
SAE
SAE
SAE
SAE
SAE
SAE
SAE
SAE
SAE
SAE
SAE
SAE
SAE
SAE
SAE
SAE
SAE
SAE
SAE
SAE
SAE
SAE
SAE
SAE
SAE
SAE
SAE
SAE
SAE
SAE
SAE
SAE
SAE
SAE
SAE
SAE
SAE
SAE
SAE
SAE
SAE
SAE
SAE
SAE
SAE
SAE
SAE
SAE
SAE
SAE
SAE
SAE
SAE
SAE
SAE
SAE
SAE
SAE
SAE
SAE
SAE
SAE
SAE
SAE
SAE
SAE
SAE
SAE
SAE
SAE
SAE
SAE
SAE
SAE
SAE
SAE
SAE
SAE
SAE
SAE
SAE
SAE
SAE
SAE
SAE
SAE
SAE
SAE
SAE
SAE
SAE
SAE
SAE
SAE
SAE
SAE
SAE
SAE
SAE
SAE
SAE
SAE
SAE
SAE
SAE
SAE
SAE
SAE
SAE
SAE
SAE
SAE
SAE
SAE
SAE
SAE
SAE
SAE
SAE
SAE
SAE
SAE
SAE
SAE
SAE
SAE
SAE
SAE
SAE
SAE
SAE
SAE
SAE
SAE
SAE
SAE
SAE
SAE
SAE
SAE
SAE
SAE
SAE
SAE
SAE
SAE
SAE
SAE
SAE
SAE
SAE
SAE
SAE
SAE
SAE
SAE
SAE
SAE
SAE
SAE
SAE
SAE
SAE
SAE
SAE
SAE
SAE
SAE
SAE
SAE
SAE
SAE
SAE
SAE
SAE
SAE
SAE
SAE
SAE
SAE
SAE
SAE
SAE
SAE
SAE
SAE
SAE
SAE
SAE
SAE
SAE
SAE
SAE
SAE
SAE
SAE
SAE
SAE
SAE
SAE
SAE
SAE
SAE
SAE
SAE
SAE
SAE
SAE
SAE
SAE
SAE
SAE
SAE
SAE
SAE
SAE
SAE
SAE
SAE
SAE
SAE
SAE
SAE
SAE
SAE
SAE
SAE
SAE
SAE
SAE
SAE
SAE
SAE
SAE
SAE
SAE
SAE
SAE
SAE
SAE
SAE
SAE
SAE
SAE
SAE
SAE
SAE
SAE
SAE
SAE
SAE
SAE
SAE
SAE
SAE
SAE
SAE
SAE
SAE
SAE
SAE
SAE
SAE
SAE
SAE
SAE
SAE
SAE
SAE
SAE
SAE
SAE
SAE
SAE
SAE
SAE
SAE
SAE
SAE
SAE
SAE
SAE
SAE
SAE
SAE
SAE
SAE
SAE
SAE
SAE
SAE
SAE
SAE
SAE
SAE
SAE
SAE
SAE
SAE
SAE
SAE
SAE
SAE
SAE
SAE
SAE
SAE
SAE
SAE
SAE
SAE
SAE
SAE
SAE
SAE
SAE
SAE
SAE
SAE
SAE
SAE
SAE
SAE
SAE
SAE
SAE
SAE
SAE
SAE
SAE
SAE
SAE
SAE
SAE
SAE
SAE
SAE
SAE
SAE
SAE
SAE
SAE
SAE
SAE
SAE
SAE
SAE
SAE
SAE
SAE
SAE
SAE
SAE
SAE
SAE
SAE
SAE
SAE
SAE
SAE
SAE
SAE
SAE
SAE
SAE
SAE
SAE
SAE
SAE
SAE
SAE
SAE
SAE
SAE
SAE
SAE
SAE
SAE
SAE
SAE
SAE
SAE
SAE
SAE
SAE
SAE
SAE
SAE
SAE
SAE
SAE
SAE
SAE
SAE
SAE
SAE
SAE
SAE
SAE
SAE
SAE
SAE
SAE
SAE
SAE
SAE
SAE
SAE
SAE
SAE
SAE
SAE
SAE
SAE
SAE
SAE
SAE
SAE
SAE
SAE
SAE
SAE
SAE
SAE
SAE
SAE
SAE
SAE
SAE
SAE
SAE
SAE
SAE
SAE
SAE
SAE
SAE
SAE
SAE
SAE
SAE
SAE
SAE
SAE
SAE
SAE
SAE
SAE
SAE
SAE
SAE
SAE
SAE
SAE
SAE
SAE
SAE
SAE
SAE
SAE
SAE
SAE
SAE
SAE
SAE
SAE
SAE
SAE
SAE
SAE
SAE
SAE
SAE
SAE
SAE
SAE
SAE
SAE
SAE
SAE
SAE
SAE
SAE
SAE
SAE
SAE
SAE
SAE
SAE
SAE
SAE
SAE
SAE
SAE
SAE
SAE
SAE
SAE
SAE
SAE
SAE
SAE
SAE
SAE
SAE
SAE
SAE
SAE
SAE
SAE
SAE
SAE
SAE
SAE
SAE
SAE
SAE
SAE
SAE
SAE
SAE
SAE
SAE
SAE
SAE
SAE
SAE
SAE
SAE
SAE
SAE
SAE
SAE
SAE
SAE
SAE
SAE
SAE
SAE
SAE
SAE
SAE
SAE
SAE
SAE
SAE
SAE
SAE
SAE
SAE
SAE
SAE
SAE
SAE
SAE
SAE
SAE
SAE
SAE
SAE
SAE
SAE
SAE
SAE
SAE
SAE
SAE
SAE
SAE
SAE
SAE
SAE
SAE
SAE
SAE
SAE
SAE
SAE
SAE
SAE
SAE
SAE
SAE
SAE
SAE
SAE
SAE
SAE
SAE
SAE
SAE
SAE
SAE
SAE
SAE
SAE
SAE
SAE
SAE
SAE
SAE
SAE
SAE
SAE
SAE
SAE
SAE
SAE
SAE
SAE
SAE
SAE
SAE
SAE
SAE
SAE
SAE
SAE
SAE
SAE
SAE
SAE
SAE
SAE
SAE
SAE
SAE
SAE
SAE
SAE
SAE
SAE
SAE
SAE
SAE
SAE
SAE
SAE
SAE
SAE
SAE
SAE
SAE
SAE
SAE
SAE
SAE
SAE
SAE
SAE
SAE
SAE
SAE
SAE
SAE
SAE
SAE
SAE
SAE
SAE
SAE
SAE
SAE
SAE
SAE
SAE
SAE
SAE
SAE
SAE
SAE
SAE
SAE
SAE
SAE
SAE
SAE
SAE
SAE
SAE
SAE
SAE
SAE
SAE
SAE
SAE
SAE
SAE
SAE
SAE
SAE
SAE
SAE
SAE
SAE
SAE
SAE
SAE
SAE
SAE
SAE
SAE
SAE
SAE
SAE
SAE
SAE
SAE
SAE
SAE
SAE
SAE
SAE
SAE
SAE
SAE
SAE
SAE
SAE
SAE
SAE
SAE
SAE
SAE
SAE
SAE
SAE
SAE
SAE
SAE
SAE
SAE
SAE
SAE
SAE
SAE
SAE
SAE
SAE
SAE
SAE
SAE
SAE
SAE
SAE
SAE
SAE
SAE
SAE
SAE
SAE
SAE
SAE
SAE
SAE
SAE
SAE
SAE
SAE
SAE
SAE
SAE
SAE
SAE
SAE
SAE
SAE
SAE
SAE
SAE
SAE
SAE
SAE
SAE
SAE
SAE
SAE
SAE
SAE
SAE
SAE
SAE
SAE
SAE
SAE
SAE
SAE
SAE
SAE
SAE
SAE
SAE
SAE
SAE
SAE
SAE
SAE
SAE
SAE
SAE
SAE
SAE
SAE
SAE
SAE
SAE
SAE
SAE
SAE
SAE
SAE
SAE
SAE
SAE
SAE
SAE
SAE
SAE
SAE
SAE
SAE
SAE
SAE
SAE
SAE
SAE
SAE
SAE
SAE
SAE
SAE
SAE
SAE
SAE
SAE
SAE
SAE
SAE
SAE
SAE
SAE
SAE
SAE
SAE
SAE
SAE
SAE
SAE
SAE
SAE
SAE
SAE
SAE
SAE
SAE
SAE
SAE
SAE
SAE
SAE
SAE
SAE
SAE
SAE
SAE
SAE
SAE
SAE
SAE
SAE
SAE
SAE
SAE
SAE
SAE
SAE
SAE
SAE
SAE
SAE
SAE
SAE
SAE
SAE
SAE
SAE
SAE
SAE
SAE
SAE
SAE
SAE
SAE
SAE
SAE
SAE
SAE
SAE
SAE
SAE
SAE
SAE
SAE
SAE
SAE
SAE
SAE
SAE
SAE
SAE
SAE
SAE
SAE
SAE
SAE
SAE
SAE
SAE
SAE
SAE
SAE
SAE
SAE
SAE
SAE
SAE
SAE
SAE
SAE
SAE
SAE
SAE
SAE
SAE
SAE
SAE
SAE
SAE
SAE
SAE
SAE
SAE
SAE
SAE
SAE
SAE
SAE
SAE
SAE
SAE
SAE
SAE
SAE
SAE
SAE
SAE
SAE
SAE
SAE
SAE
SAE
SAE
SAE
SAE
SAE
SAE
SAE
SAE
SAE
SAE
SAE
SAE
SAE
SAE
SAE
SAE
SAE
SAE
SAE
SAE
SAE
SAE
SAE
SAE
SAE
SAE
SAE
SAE
SAE
SAE
SAE
SAE
SAE
SAE
SAE
SAE
SAE
SAE
SAE
SAE
SAE
SAE
SAE
SAE
SAE
SAE
SAE
SAE
SAE
SAE
SAE
SAE
SAE
SAE
SAE
SAE
SAE
SAE
SAE
SAE
SAE
SAE
SAE
SAE
SAE
SAE
SAE
SAE
SAE
SAE
SAE
SAE
SAE
SAE
SAE
SAE
SAE
SAE
SAE
SAE
SAE
SAE
SAE
SAE
SAE
SAE
SAE
SAE
SAE
SAE
SAE
SAE
SAE
SAE
SAE
SAE
SAE
SAE
SAE
SAE
SAE
SAE
SAE
SAE
SAE
SAE
SAE
SAE
SAE
SAE
SAE
SAE
SAE
SAE
SAE
SAE
SAE
SAE
SAE
SAE
SAE
SAE
SAE
SAE
SAE
SAE
SAE
SAE
SAE
SAE
SAE
SAE
SAE
SAE
SAE
SAE
SAE
SAE
SAE
SAE
SAE
SAE
SAE
SAE
SAE
SAE
SAE
SAE
SAE
SAE
SAE
SAE
SAE
SAE
SAE
SAE
SAE
SAE
SAE
SAE
SAE
SAE
SAE
SAE
SAE
SAE
SAE
SAE
SAE
SAE
SAE
SAE
SAE
SAE
SAE
SAE
SAE
SAE
SAE
SAE
SAE
SAE
SAE
SAE
SAE
SAE
SAE
SAE
SAE
SAE
SAE
SAE
SAE
SAE
SAE
SAE
SAE
SAE
SAE
SAE
SAE
SAE
SAE
SAE
SAE
SAE
SAE
SAE
SAE
SAE
SAE
SAE
SAE
SAE
SAE
SAE
SAE
SAE
SAE
SAE
SAE
SAE
SAE
SAE
SAE
SAE
SAE
SAE
SAE
SAE
SAE
SAE
SAE
SAE
SAE
SAE
SAE
SAE
SAE
SAE
SAE
SAE
SAE
SAE
SAE
SAE
SAE
SAE
SAE
SAE
SAE
SAE
SAE
SAE
SAE
SAE
SAE
SAE
SAE
SAE
SAE
SAE
SAE
SAE
SAE
SAE
SAE
SAE
SAE
SAE
SAE
SAE
SAE
SAE
SAE
SAE
SAE
SAE
SAE
SAE
SAE
SAE
SAE
SAE
SAE
SAE
SAE
SAE
SAE
SAE
SAE
SAE
SAE
SAE
SAE
SAE
SAE
SAE
SAE
SAE
SAE
SAE
SAE
SAE
SAE
SAE
SAE
SAE
SAE
SAE
SAE
SAE
SAE
SAE
SAE
SAE
SAE
SAE
SAE
SAE
SAE
SAE
SAE
SAE
SAE
SAE
SAE
SAE
SAE
SAE
SAE
SAE
SAE
SAE
SAE
SAE
SAE
SAE
SAE
SAE
SAE
SAE
SAE
SAE
SAE
SAE
SAE
SAE
SAE
SAE
SAE
SAE
SAE
SAE
SAE
SAE
SAE
SAE
SAE
SAE
SAE
SAE
SAE
SAE
SAE
SAE
SAE
SAE
SAE
SAE
SAE
SAE
SAE
SAE
SAE
SAE
SAE
SAE
SAE
SAE
SAE
SAE
SAE
SAE
SAE
SAE
SAE
SAE
SAE
SAE
SAE
SAE
SAE
SAE
SAE
SAE
SAE
SAE
SAE
SAE
SAE
SAE
SAE
SAE
SAE
SAE
SAE
SAE
SAE
SAE
SAE
SAE
SAE
SAE
SAE
SAE
SAE
SAE
SAE
SAE
SAE
SAE
SAE
SAE
SAE
SAE
SAE
SAE
SAE
SAE
SAE
SAE
SAE
SAE
SAE
SAE
SAE
SAE
SAE
SAE
SAE
SAE
SAE
SAE
SAE
SAE
SAE
SAE
SAE
SAE
SAE
SAE
SAE
SAE
SAE
SAE
SAE
SAE
SAE
SAE
SAE
SAE
SAE
SAE
SAE
SAE
SAE
SAE
SAE
SAE
SAE
SAE
SAE
SAE
SAE
SAE
SAE
SAE
SAE
SAE
SAE
SAE
SAE
SAE
SAE
SAE
SAE
SAE
SAE
SAE
SAE
SAE
SAE
SAE
SAE
SAE
SAE
SAE
SAE
SAE
SAE
SAE
SAE
SAE
SAE
SAE
SAE
SAE
SAE
SAE
SAE
SAE
SAE
SAE
SAE
SAE
SAE
SAE
SAE
SAE
SAE
SAE
SAE
SAE
SAE
SAE
SAE
SAE
SAE
SAE
SAE
SAE
SAE
SAE
SAE
SAE
SAE
SAE
SAE
SAE
SAE
SAE
SAE
SAE
SAE
SAE
SAE
SAE
SAE
SAE
SAE
SAE
SAE
SAE
SAE
SAE
SAE
SAE
SAE
SAE
SAE
SAE
SAE
SAE
SAE
SAE
SAE
SAE
SAE
SAE
SAE
SAE
SAE
SAE
SAE
SAE
SAE
SAE
SAE
SAE
SAE
SAE
SAE
SAE
SAE
SAE
SAE
SAE
SAE
SAE
SAE
SAE
SAE
SAE
SAE
SAE
SAE
SAE
SAE
SAE
SAE
SAE
SAE
SAE
SAE
SAE
SAE
SAE
SAE
SAE
SAE
SAE
SAE
SAE
SAE
SAE
SAE
SAE
SAE
SAE
SAE
SAE
SAE
SAE
SAE
SAE
SAE
SAE
SAE
SAE
SAE
SAE
SAE
SAE
SAE
SAE
SAE
SAE
SAE
SAE
SAE
SAE
SAE
SAE
SAE
SAE
SAE
SAE
SAE
SAE
SAE
SAE
SAE
SAE
SAE
SAE
SAE
SAE
SAE
SAE
SAE
SAE
SAE
SAE
SAE
SAE
SAE
SAE
SAE
SAE
SAE
SAE
SAE
SAE
SAE
SAE
SAE
SAE
SAE
SAE
SAE
SAE
SAE
SAE
SAE
SAE
SAE
SAE
SAE
SAE
SAE
SAE
SAE
SAE
SAE
SAE
SAE
SAE
SAE
SAE
SAE
SAE
SAE
SAE
SAE
SAE
SAE
SAE
SAE
SAE
SAE
SAE
SAE
SAE
SAE
SAE
SAE
SAE
SAE
SAE
SAE
SAE
SAE
SAE
SAE
SAE
SAE
SAE
SAE
SAE
SAE
SAE
SAE
SAE
SAE
SAE
SAE
SAE
SAE
SAE
SAE
SAE
SAE
SAE
SAE
SAE
SAE
SAE
SAE
SAE
SAE
SAE
SAE
SAE
SAE
SAE
SAE
SAE
SAE
SAE
SAE
SAE
SAE
SAE
SAE
SAE
SAE
SAE
SAE
SAE
SAE
SAE
SAE
SAE
SAE
SAE
SAE
SAE
SAE
SAE
SAE
SAE
SAE
SAE
SAE
SAE
SAE
SAE
SAE
SAE
SAE
SAE
SAE
SAE
SAE
SAE
SAE
SAE
SAE
SAE
SAE
SAE
SAE
SAE
SAE
SAE
SAE
SAE
SAE
SAE
SAE
SAE
SAE
SAE
SAE
SAE
SAE
SAE
SAE
SAE
SAE
SAE
SAE
SAE
SAE
SAE
SAE
SAE
SAE
SAE
SAE
SAE
SAE
SAE
SAE
SAE
SAE
SAE
SAE
SAE
SAE
SAE
SAE
SAE
SAE
SAE
SAE
SAE
SAE
SAE
SAE
SAE
SAE
SAE
SAE
SAE
SAE
SAE
SAE
SAE
SAE
SAE
SAE
SAE
SAE
SAE
SAE
SAE
SAE
SAE
SAE
SAE
SAE
SAE
SAE
SAE
SAE
SAE
SAE
SAE
SAE
SAE
SAE
SAE
SAE
SAE
SAE
SAE
SAE
SAE
SAE
SAE
SAE
SAE
SAE
SAE
SAE
SAE
SAE
SAE
SAE
SAE
SAE
SAE
SAE
SAE
SAE
SAE
SAE
SAE
SAE
SAE
SAE
SAE
SAE
SAE
SAE
SAE
SAE
SAE
SAE
SAE
SAE
SAE
SAE
SAE
SAE
SAE
SAE
SAE
SAE
SAE
SAE
SAE
SAE
SAE
SAE
SAE
SAE
SAE
SAE
SAE
SAE
SAE
SAE
SAE
SAE
SAE
SAE
SAE
SAE
SAE
SAE
SAE
SAE
SAE
SAE
SAE
SAE
SAE
SAE
SAE
SAE
SAE
SAE
SAE
SAE
SAE
SAE
SAE
SAE
SAE
SAE
SAE
SAE
SAE
SAE
SAE
SAE
SAE
SAE
SAE
SAE
SAE
SAE
SAE
SAE
SAE
SAE
SAE
SAE
SAE
SAE
SAE
SAE
SAE
SAE
SAE
SAE
SAE
SAE
SAE
SAE
SAE
SAE
SAE
SAE
SAE
SAE
SAE
SAE
SAE
SAE
SAE
SAE
SAE
SAE
SAE
SAE
SAE
SAE
SAE
SAE
SAE
SAE
SAE
SAE
SAE
SAE
SAE
SAE
SAE
SAE
SAE
SAE
SAE
SAE
SAE
SAE
SAE
SAE
SAE
SAE
SAE
SAE
SAE
SAE
SAE
SAE
SAE
SAE
SAE
SAE
SAE
SAE
SAE
SAE
SAE
SAE
SAE
SAE
SAE
SAE
SAE
SAE
SAE
SAE
SAE
SAE
SAE
SAE
SAE
SAE
SAE
SAE
SAE
SAE
SAE
SAE
SAE
SAE
SAE
SAE
SAE
SAE
SAE
SAE
SAE
SAE
SAE
SAE
SAE
SAE
SAE
SAE
SAE
SAE
SAE
SAE
SAE
SAE
SAE
SAE
SAE
SAE
SAE
SAE
SAE
SAE
SAE
SAE
SAE
SAE
SAE
SAE
SAE
SAE
SAE
SAE
SAE
SAE
SAE
SAE
SAE
SAE
SAE
SAE
SAE
SAE
SAE
SAE
SAE
SAE
SAE
SAE
SAE
SAE
SAE
SAE
SAE
SAE
SAE
SAE
SAE
SAE
SAE
SAE
SAE
SAE
SAE
SAE
SAE
SAE
SAE
SAE
SAE
SAE
SAE
SAE
SAE
SAE
SAE
SAE
SAE
SAE
SAE
SAE
SAE
SAE
SAE
SAE
SAE
SAE
SAE
SAE
SAE
SAE
SAE
SAE
SAE
SAE
SAE
SAE
SAE
SAE
SAE
SAE
SAE
SAE
SAE
SAE
SAE
SAE
SAE
SAE
SAE
SAE
SAE
SAE
SAE
SAE
SAE
SAE
SAE
SAE
SAE
SAE
SAE
SAE
SAE
SAE
SAE
SAE
SAE
SAE
SAE
SAE
SAE
SAE
SAE
SAE
SAE
SAE
SAE
SAE
SAE
SAE
SAE
SAE
SAE
SAE
SAE
SAE
SAE
SAE
SAE
SAE
SAE
SAE
SAE
SAE
SAE
SAE
SAE
SAE
SAE
SAE
SAE
SAE
SAE
SAE
SAE
SAE
SAE
SAE
SAE
SAE
SAE
SAE
SAE
SAE
SAE
SAE
SAE
SAE
SAE
SAE
SAE
SAE
SAE
SAE
SAE
SAE
SAE
SAE
SAE
SAE
SAE
SAE
SAE
SAE
SAE
SAE
SAE
SAE
SAE
SAE
SAE
SAE
SAE
SAE
SAE
SAE
SAE
SAE
SAE
SAE
SAE
SAE
SAE
SAE
SAE
SAE
SAE
SAE
SAE
SAE
SAE
SAE
SAE
SAE
SAE
SAE
SAE
SAE
SAE
SAE
SAE
SAE
SAE
SAE
SAE
SAE
SAE
SAE
SAE
SAE
SAE
SAE
SAE
SAE
SAE
SAE
SAE
SAE
SAE
SAE
SAE
SAE
SAE
SAE
SAE
SAE
SAE
SAE
SAE
SAE
SAE
SAE
SAE
SAE
SAE
SAE
SAE
SAE
SAE
SAE
SAE
SAE
SAE
SAE
SAE
SAE
SAE
SAE
SAE
SAE
SAE
SAE
SAE
SAE
SAE
SAE
SAE
SAE
SAE
SAE
SAE
SAE
SAE
SAE
SAE
SAE
SAE
SAE
SAE
SAE
SAE
SAE
SAE
SAE
SAE
SAE
SAE
SAE
SAE
SAE
SAE
SAE
SAE
SAE
SAE
SAE
SAE
SAE
SAE
SAE
SAE
SAE
SAE
SAE
SAE
SAE
SAE
SAE
SAE
SAE
SAE
SAE
SAE
SAE
SAE
SAE
SAE
SAE
SAE
SAE
SAE
SAE
SAE
SAE
SAE
SAE
SAE
SAE
SAE
SAE
SAE
SAE
SAE
SAE
SAE
SAE
SAE
SAE
SAE
SAE
SAE
SAE
SAE
SAE
SAE
SAE
SAE
SAE
SAE
SAE
SAE
SAE
SAE
SAE
SAE
SAE
SAE
SAE
SAE
SAE
SAE
SAE
SAE
SAE
SAE
SAE
SAE
SAE
SAE
SAE
SAE
SAE
SAE
SAE
SAE
SAE
SAE
SAE
SAE
SAE
SAE
SAE
SAE
SAE
SAE
SAE
SAE
SAE
SAE
SAE
SAE
SAE
SAE
SAE
SAE
SAE
SAE
SAE
SAE
SAE
SAE
SAE
SAE
SAE
SAE
SAE
SAE
SAE
SAE
SAE
SAE
SAE
SAE
SAE
SAE
SAE
SAE
SAE
SAE
SAE
SAE
SAE
SAE
SAE
SAE
SAE
SAE
SAE
SAE
SAE
SAE
SAE
SAE
SAE
SAE
SAE
SAE
SAE
SAE
SAE
SAE
SAE
SAE
SAE
SAE
SAE
SAE
SAE
SAE
SAE
SAE
SAE
SAE
SAE
SAE
SAE
SAE
SAE
SAE
SAE
SAE
SAE
SAE
SAE
SAE
SAE
SAE
SAE
SAE
SAE
SAE
SAE
SAE
SAE
SAE
SAE
SAE
SAE
SAE
SAE
SAE
SAE
SAE
SAE
SAE
SAE
SAE
SAE
SAE
SAE
SAE
SAE
SAE
SAE
SAE
SAE
SAE
SAE
SAE
SAE
SAE
SAE
SAE
SAE
SAE
SAE
SAE
SAE
SAE
SAE
SAE
SAE
SAE
SAE
SAE
SAE
SAE
SAE
SAE
SAE
SAE
SAE
SAE
SAE
SAE
SAE
SAE
SAE
SAE
SAE
SAE
SAE
SAE
SAE
SAE
SAE
SAE
SAE
SAE
SAE
SAE
SAE
SAE
SAE
SAE
SAE
SAE
SAE
SAE
SAE
SAE
SAE
SAE
SAE
SAE
SAE
SAE
SAE
SAE
SAE
SAE
SAE
SAE
SAE
SAE
SAE
SAE
SAE
SAE
SAE
SAE
SAE
SAE
SAE
SAE
SAE
SAE
SAE
SAE
SAE
SAE
SAE
SAE
SAE
SAE
SAE
SAE
SAE
SAE
SAE
SAE
SAE
SAE
SAE
SAE
SAE
SAE
SAE
SAE
SAE
SAE
SAE
SAE
SAE
SAE
SAE
SAE
SAE
SAE
SAE
SAE
SAE
SAE
SAE
SAE
SAE
SAE
SAE
SAE
SAE
SAE
SAE
SAE
SAE
SAE
SAE
SAE
SAE
SAE
SAE
SAE
SAE
SAE
SAE
SAE
SAE
SAE
SAE
SAE
SAE
SAE
SAE
SAE
SAE
SAE
SAE
SAE
SAE
SAE
SAE
SAE
SAE
SAE
SAE
SAE
SAE
SAE
SAE
SAE
SAE
SAE
SAE
SAE
SAE
SAE
SAE
SAE
SAE
SAE
SAE
SAE
SAE
SAE
SAE
SAE
SAE
SAE
SAE
SAE
SAE
SAE
SAE
SAE
SAE
SAE
SAE
SAE
SAE
SAE
SAE
SAE
SAE
SAE
SAE
SAE
SAE
SAE
SAE
SAE
SAE
SAE
SAE
SAE
SAE
SAE
SAE
SAE
SAE
SAE
SAE
SAE
SAE
SAE
SAE
SAE
SAE
SAE
SAE
SAE
SAE
SAE
SAE
SAE
SAE
SAE
SAE
SAE
SAE
SAE
SAE
SAE
SAE
SAE
SAE
SAE
SAE
SAE
SAE
SAE
SAE
SAE
SAE
SAE
SAE
SAE
SAE
SAE
SAE
SAE
SAE
SAE
SAE
SAE
SAE
SAE
SAE
SAE
SAE
SAE
SAE
SAE
SAE
SAE
SAE
SAE
SAE
SAE
SAE
SAE
SAE
SAE
SAE
SAE
SAE
SAE
SAE
SAE
SAE
SAE
SAE
SAE
SAE
SAE
SAE
SAE
SAE
SAE
SAE
SAE
SAE
SAE
SAE
SAE
SAE
SAE
SAE
SAE
SAE
SAE
SAE
SAE
SAE
SAE
SAE
SAE
SAE
SAE
SAE
SAE
SAE
SAE
SAE
SAE
SAE
SAE
SAE
SAE
SAE
SAE
SAE
SAE
SAE
SAE
SAE
SAE
SAE
SAE
SAE
SAE
SAE
SAE
SAE
SAE
SAE
SAE
SAE
SAE
SAE
SAE
SAE
SAE
SAE
SAE
SAE
SAE
SAE
SAE
SAE
SAE
SAE
SAE
SAE
SAE
SAE
SAE
SAE
SAE
SAE
SAE
SAE
SAE
SAE
SAE
SAE
SAE
SAE
SAE
SAE
SAE
SAE
SAE
SAE
SAE
SAE
SAE
SAE
SAE
SAE
SAE
SAE
SAE
SAE
SAE
SAE
SAE
SAE
SAE
SAE
SAE
SAE
SAE
SAE
SAE
SAE
SAE
SAE
SAE
SAE
SAE
SAE
SAE
SAE
SAE
SAE
SAE
SAE
SAE
SAE
SAE
SAE
SAE
SAE
SAE
SAE
SAE
SAE
SAE
SAE
SAE
SAE
SAE
SAE
SAE
SAE
SAE
SAE
SAE
SAE
SAE
SAE
SAE
SAE
SAE
SAE
SAE
SAE
SAE
SAE
SAE
SAE
SAE
SAE
SAE
SAE
SAE
SAE
SAE
SAE
SAE
SAE
SAE
SAE
SAE
SAE
SAE
SAE
SAE
SAE
SAE
SAE
SAE
SAE
SAE
SAE
SAE
SAE
SAE
SAE
SAE
SAE
SAE
SAE
SAE
SAE
SAE
SAE
SAE
SAE
SAE
SAE
SAE
SAE
SAE
SAE
SAE
SAE
SAE
SAE
SAE
SAE
SAE
SAE
SAE
SAE
SAE
SAE
SAE
SAE
SAE
SAE
SAE
SAE
SAE
SAE
SAE
SAE
SAE
SAE
SAE
SAE
SAE
SAE
SAE
SAE
SAE
SAE
SAE
SAE
SAE
SAE
SAE
SAE
SAE
SAE
SAE
SAE
SAE
SAE
SAE
SAE
SAE
SAE
SAE
SAE
SAE
SAE
SAE
SAE
SAE
SAE
SAE
SAE
SAE
SAE
SAE
SAE
SAE
SAE
SAE
SAE
SAE
SAE
SAE
SAE
SAE
SAE
SAE
SAE
SAE
SAE
SAE
SAE
SAE
SAE
SAE
SAE
SAE
SAE
SAE
SAE
SAE
SAE
SAE
SAE
SAE
SAE
SAE
SAE
SAE
SAE
SAE
SAE
SAE
SAE
SAE
SAE
SAE
SAE
SAE
SAE
SAE
SAE
SAE
SAE
SAE
SAE
SAE
SAE
SAE
SAE
SAE
SAE
SAE
SAE
SAE
SAE
SAE
SAE
SAE
SAE
SAE
SAE
SAE
SAE
SAE
SAE
SAE
SAE
SAE
SAE
SAE
SAE
SAE
SAE
SAE
SAE
SAE
SAE
SAE
SAE
SAE
SAE
SAE
SAE
SAE
SAE
SAE
SAE
SAE
SAE
SAE
SAE
SAE
SAE
SAE
SAE
SAE
SAE
SAE
SAE
SAE
SAE
SAE
SAE
SAE
SAE
SAE
SAE
SAE
SAE
SAE
SAE
SAE
SAE
SAE
SAE
SAE
SAE
SAE
SAE
SAE
SAE
SAE
SAE
SAE
SAE
SAE
SAE
SAE
SAE
SAE
SAE
SAE
SAE
SAE
SAE
SAE
SAE
SAE
SAE
SAE
SAE
SAE
SAE
SAE
SAE
SAE
SAE
SAE
SAE
SAE
SAE
SAE
SAE
SAE
SAE
SAE
SAE
SAE
SAE
SAE
SAE
SAE
SAE
SAE
SAE
SAE
SAE
SAE
SAE
SAE
SAE
SAE
SAE
SAE
SAE
SAE
SAE
SAE
SAE
SAE
SAE
SAE
SAE
SAE
SAE
SAE
SAE
SAE
SAE
SAE
SAE
SAE
SAE
SAE
SAE
SAE
SAE
SAE
SAE
SAE
SAE
SAE
SAE
SAE
SAE
SAE
SAE
SAE
SAE
SAE
SAE
SAE
SAE
SAE
SAE
SAE
SAE
SAE
SAE
SAE
SAE
SAE
SAE
SAE
SAE
SAE
SAE
SAE
SAE
SAE
SAE
SAE
SAE
SAE
SAE
SAE
SAE
SAE
SAE
SAE
SAE
SAE
SAE
SAE
SAE
SAE
SAE
SAE
SAE
SAE
SAE
SAE
SAE
SAE
SAE
SAE
SAE
SAE
SAE
SAE
SAE
SAE
SAE
SAE
SAE
SAE
SAE
SAE
SAE
SAE
SAE
SAE
SAE
SAE
SAE
SAE
SAE
SAE
SAE
SAE
SAE
SAE
SAE
SAE
SAE
SAE
SAE
SAE
SAE
SAE
SAE
SAE
SAE
SAE
SAE
SAE
SAE
SAE
SAE
SAE
SAE
SAE
SAE
SAE
SAE
SAE
SAE
SAE
SAE
SAE
SAE
SAE
SAE
SAE
SAE
SAE
SAE
SAE
SAE
SAE
SAE
SAE
SAE
SAE
SAE
SAE
SAE
SAE
SAE
SAE
SAE
SAE
SAE
SAE
SAE
SAE
SAE
SAE
SAE
SAE
SAE
SAE
SAE
SAE
SAE
SAE
SAE
SAE
SAE
SAE
SAE
SAE
SAE
SAE
SAE
SAE
SAE
SAE
SAE
SAE
SAE
SAE
SAE
SAE
SAE
SAE
SAE
SAE
SAE
SAE
SAE
SAE
SAE
SAE
SAE
SAE
SAE
SAE
SAE
SAE
SAE
SAE
SAE
SAE
SAE
SAE
SAE
SAE
SAE
SAE
SAE
SAE
SAE
SAE
SAE
SAE
SAE
SAE
SAE
SAE
SAE
SAE
SAE
SAE
SAE
SAE
SAE
SAE
SAE
SAE
SAE
SAE
SAE
SAE
SAE
SAE
SAE
SAE
SAE
SAE
SAE
SAE
SAE
SAE
SAE
SAE
SAE
SAE
SAE
SAE
SAE
SAE
SAE
SAE
SAE
SAE
SAE
SAE
SAE
SAE
SAE
SAE
SAE
SAE
SAE
SAE
SAE
SAE
SAE
SAE
SAE
SAE
SAE
SAE
SAE
SAE
SAE
SAE
SAE
SAE
SAE
SAE
SAE
SAE
SAE
SAE
SAE
SAE
SAE
SAE
SAE
SAE
SAE
SAE
SAE
SAE
SAE
SAE
SAE
SAE
SAE
SAE
SAE
SAE
SAE
SAE
SAE
SAE
SAE
SAE
SAE
SAE
SAE
SAE
SAE
SAE
SAE
SAE
SAE
SAE
SAE
SAE
SAE
SAE
SAE
SAE
SAE
SAE
SAE
SAE
SAE
SAE
SAE
SAE
SAE
SAE
SAE
SAE
SAE
SAE
SAE
SAE
SAE
SAE
SAE
SAE
SAE
SAE
SAE
SAE
SAE
SAE
SAE
SAE
SAE
SAE
SAE
SAE
SAE
SAE
SAE
SAE
SAE
SAE
SAE
SAE
SAE
SAE
SAE
SAE
SAE
SAE
SAE
SAE
SAE
SAE
SAE
SAE
SAE
SAE
SAE
SAE
SAE
SAE
SAE
SAE
SAE
SAE
SAE
SAE
SAE
SAE
SAE
SAE
SAE
SAE
SAE
SAE
SAE
SAE
SAE
SAE
SAE
SAE
SAE
SAE
SAE
SAE
SAE
SAE
SAE
SAE
SAE
SAE
SAE
SAE
SAE
SAE
SAE
SAE
SAE
SAE
SAE
SAE
SAE
SAE
SAE
SAE
SAE
SAE
SAE
SAE
SAE
SAE
SAE
SAE
SAE
SAE
SAE
SAE
SAE
SAE
SAE
SAE
SAE
SAE
SAE
SAE
SAE
SAE
SAE
SAE
SAE
SAE
SAE
SAE
SAE
SAE
SAE
SAE
SAE
SAE
SAE
SAE
SAE
SAE
SAE
SAE
SAE
SAE
[    _ERROR] check_hit invalid set index: 78187 NUM_SET: 0 address: 98b5b full_addr: 262d6c0 event: 13926089
bimodal-ipcp-ipcp-no-hawkeye-0-1-1-3-0-1-8core_6_2_GLRU: src/cache.cc:2704: int CACHE::check_hit(PACKET*, uint32_t): Assertion `0' failed.
