
*** ChampSim Multicore Out-of-Order Simulator ***

Warmup Instructions: 50000000
Simulation Instructions: 200000000
Number of CPUs: 8
threads:1

L1I Configuration:
L1I_SET:64
L1I_WAY:8
L1I_RQ_SIZE:64
L1I_WQ_SIZE:64
L1I_PQ_SIZE:8
L1I_MSHR_SIZE:8

L1D Configuration:
L1D_SET:64
L1D_WAY:12
L1D_RQ_SIZE:64
L1D_WQ_SIZE:64
L1D_PQ_SIZE:8
L1D_MSHR_SIZE:16

L2C Configuration:
L2C_SET:1024
L2C_WAY:8
L2C_RQ_SIZE:32
L2C_WQ_SIZE:32
L2C_PQ_SIZE:16
L2C_MSHR_SIZE:32

LLC Configuration:
LLC_SET:2048
LLC_WAY:12
LLC SLICES:8
LLC_RQ_SIZE:64
LLC_WQ_SIZE:64
LLC_PQ_SIZE:32
LLC_MSHR_SIZE:64

Interconnect OFF
Attacker deprioritize is: OFF
Off-chip DRAM Size: 8192 MB Channels: 2 Width: 64-bit Data Rate: 3200 MT/s
PAGE SIZE in KB: 4.000000 
PAGE SIZE in MB: 0.003906 
PAGE offset in bits: 12 
CEASER-S_LLC:0
MIRAGE : 1
CEASER_LATENCY:3
REMAP : OFF
Partitions : 1
Multi-Step : OFF
BFS : OFF

CPU 0 runs /home/bhavsar/USENIX/perf/maya-cache/performance-analysis/GLRU-mirage/../../../../../spec/625.x264_s-20B.champsimtrace.xz
CPU 1 runs /home/bhavsar/USENIX/perf/maya-cache/performance-analysis/GLRU-mirage/../../../../../spec/625.x264_s-20B.champsimtrace.xz
CPU 2 runs /home/bhavsar/USENIX/perf/maya-cache/performance-analysis/GLRU-mirage/../../../../../spec/625.x264_s-20B.champsimtrace.xz
CPU 3 runs /home/bhavsar/USENIX/perf/maya-cache/performance-analysis/GLRU-mirage/../../../../../spec/625.x264_s-20B.champsimtrace.xz
CPU 4 runs /home/bhavsar/USENIX/perf/maya-cache/performance-analysis/GLRU-mirage/../../../../../spec/625.x264_s-20B.champsimtrace.xz
CPU 5 runs /home/bhavsar/USENIX/perf/maya-cache/performance-analysis/GLRU-mirage/../../../../../spec/625.x264_s-20B.champsimtrace.xz
CPU 6 runs /home/bhavsar/USENIX/perf/maya-cache/performance-analysis/GLRU-mirage/../../../../../spec/625.x264_s-20B.champsimtrace.xz
CPU 7 runs /home/bhavsar/USENIX/perf/maya-cache/performance-analysis/GLRU-mirage/../../../../../spec/625.x264_s-20B.champsimtrace.xz
CPU 0 Bimodal branch predictor
Initialize Hawkeye state
Initialize Hawkeye state
Initialize Hawkeye state
Initialize Hawkeye state
Initialize Hawkeye state
Initialize Hawkeye state
Initialize Hawkeye state
Initialize Hawkeye state
CPU 1 Bimodal branch predictor
Initialize Hawkeye state
Initialize Hawkeye state
Initialize Hawkeye state
Initialize Hawkeye state
Initialize Hawkeye state
Initialize Hawkeye state
Initialize Hawkeye state
Initialize Hawkeye state
CPU 2 Bimodal branch predictor
Initialize Hawkeye state
Initialize Hawkeye state
Initialize Hawkeye state
Initialize Hawkeye state
Initialize Hawkeye state
Initialize Hawkeye state
Initialize Hawkeye state
Initialize Hawkeye state
CPU 3 Bimodal branch predictor
Initialize Hawkeye state
Initialize Hawkeye state
Initialize Hawkeye state
Initialize Hawkeye state
Initialize Hawkeye state
Initialize Hawkeye state
Initialize Hawkeye state
Initialize Hawkeye state
CPU 4 Bimodal branch predictor
Initialize Hawkeye state
Initialize Hawkeye state
Initialize Hawkeye state
Initialize Hawkeye state
Initialize Hawkeye state
Initialize Hawkeye state
Initialize Hawkeye state
Initialize Hawkeye state
CPU 5 Bimodal branch predictor
Initialize Hawkeye state
Initialize Hawkeye state
Initialize Hawkeye state
Initialize Hawkeye state
Initialize Hawkeye state
Initialize Hawkeye state
Initialize Hawkeye state
Initialize Hawkeye state
CPU 6 Bimodal branch predictor
Initialize Hawkeye state
Initialize Hawkeye state
Initialize Hawkeye state
Initialize Hawkeye state
Initialize Hawkeye state
Initialize Hawkeye state
Initialize Hawkeye state
Initialize Hawkeye state
CPU 7 Bimodal branch predictor
Initialize Hawkeye state
Initialize Hawkeye state
Initialize Hawkeye state
Initialize Hawkeye state
Initialize Hawkeye state
Initialize Hawkeye state
Initialize Hawkeye state
Initialize Hawkeye state
SAE
SAE
SAE
SAE
SAE
SAE
SAE
SAE
SAE
SAE
SAE
SAE
SAE
SAE
SAE
SAE
SAE
SAE
SAE
SAE
SAE
SAE
SAE
SAE
SAE
SAE
SAE
SAE
SAE
SAE
SAE
SAE
SAE
SAE
SAE
SAE
SAE
SAE
SAE
SAE
SAE
SAE
SAE
SAE
SAE
SAE
SAE
SAE
SAE
SAE
SAE
SAE
SAE
SAE
SAE
SAE
SAE
SAE
SAE
SAE
SAE
SAE
SAE
SAE
SAE
SAE
SAE
SAE
SAE
SAE
SAE
SAE
SAE
SAE
SAE
SAE
SAE
SAE
SAE
SAE
SAE
SAE
SAE
SAE
SAE
SAE
SAE
SAE
SAE
SAE
SAE
SAE
SAE
SAE
SAE
SAE
SAE
SAE
SAE
SAE
SAE
SAE
SAE
SAE
SAE
SAE
SAE
SAE
SAE
SAE
SAE
SAE
SAE
SAE
SAE
SAE
SAE
SAE
SAE
SAE
SAE
SAE
SAE
SAE
SAE
SAE
SAE
SAE
SAE
SAE
SAE
SAE
SAE
SAE
SAE
SAE
SAE
SAE
SAE
SAE
SAE
SAE
SAE
SAE
SAE
SAE
SAE
SAE
SAE
SAE
SAE
SAE
SAE
SAE
SAE
SAE
SAE
SAE
SAE
SAE
SAE
SAE
SAE
SAE
SAE
SAE
SAE
SAE
SAE
SAE
SAE
SAE
SAE
SAE
SAE
SAE
SAE
SAE
SAE
SAE
SAE
SAE
SAE
SAE
SAE
SAE
SAE
SAE
SAE
SAE
SAE
SAE
SAE
SAE
SAE
SAE
SAE
SAE
SAE
SAE
SAE
SAE
SAE
SAE
SAE
SAE
SAE
SAE
SAE
SAE
SAE
SAE
SAE
SAE
SAE
SAE
SAE
SAE
SAE
SAE
SAE
SAE
SAE
SAE
SAE
SAE
SAE
SAE
SAE
SAE
SAE
SAE
SAE
SAE
SAE
SAE
SAE
SAE
SAE
SAE
SAE
SAE
SAE
SAE
SAE
SAE
SAE
SAE
SAE
SAE
SAE
SAE
SAE
SAE
SAE
SAE
SAE
SAE
SAE
SAE
SAE
SAE
SAE
SAE
SAE
SAE
SAE
SAE
SAE
SAE
SAE
SAE
SAE
SAE
SAE
SAE
SAE
SAE
SAE
SAE
SAE
SAE
SAE
SAE
SAE
SAE
SAE
SAE
SAE
SAE
SAE
SAE
SAE
SAE
SAE
SAE
SAE
SAE
SAE
SAE
SAE
SAE
SAE
SAE
SAE
SAE
SAE
SAE
SAE
SAE
SAE
SAE
SAE
SAE
SAE
SAE
SAE
SAE
SAE
SAE
SAE
SAE
SAE
SAE
SAE
SAE
SAE
SAE
SAE
SAE
SAE
SAE
SAE
SAE
SAE
SAE
SAE
SAE
SAE
SAE
SAE
SAE
SAE
SAE
SAE
SAE
SAE
SAE
SAE
SAE
SAE
SAE
SAE
SAE
SAE
SAE
SAE
SAE
SAE
SAE
SAE
SAE
SAE
SAE
SAE
SAE
SAE
SAE
SAE
SAE
SAE
SAE
SAE
SAE
SAE
SAE
SAE
SAE
SAE
SAE
SAE
SAE
SAE
SAE
SAE
SAE
SAE
SAE
SAE
SAE
SAE
SAE
SAE
SAE
SAE
SAE
SAE
SAE
SAE
SAE
SAE
SAE
SAE
SAE
SAE
SAE
SAE
SAE
SAE
SAE
SAE
SAE
SAE
SAE
SAE
SAE
SAE
SAE
SAE
SAE
SAE
SAE
SAE
SAE
SAE
SAE
SAE
SAE
SAE
SAE
SAE
SAE
SAE
SAE
SAE
SAE
SAE
SAE
SAE
SAE
SAE
SAE
SAE
SAE
SAE
SAE
SAE
SAE
SAE
SAE
SAE
SAE
SAE
SAE
SAE
SAE
SAE
SAE
SAE
SAE
SAE
SAE
SAE
SAE
SAE
SAE
SAE
SAE
SAE
SAE
SAE
SAE
SAE
SAE
SAE
SAE
SAE
SAE
SAE
SAE
SAE
SAE
SAE
SAE
SAE
SAE
SAE
SAE
SAE
SAE
SAE
SAE
SAE
SAE
SAE
SAE
SAE
SAE
SAE
SAE
SAE
SAE
SAE
SAE
SAE
SAE
SAE
SAE
SAE
SAE
SAE
SAE
SAE
SAE
SAE
SAE
SAE
SAE
SAE
SAE
SAE
SAE
SAE
SAE
SAE
SAE
SAE
SAE
SAE
SAE
SAE
SAE
SAE
SAE
SAE
SAE
SAE
SAE
SAE
SAE
SAE
SAE
SAE
SAE
SAE
SAE
SAE
SAE
SAE
SAE
SAE
SAE
SAE
SAE
SAE
SAE
SAE
SAE
SAE
SAE
SAE
SAE
SAE
SAE
SAE
SAE
SAE
SAE
SAE
SAE
SAE
SAE
SAE
SAE
SAE
SAE
SAE
SAE
SAE
SAE
SAE
SAE
SAE
SAE
SAE
SAE
SAE
SAE
SAE
SAE
SAE
SAE
SAE
SAE
SAE
SAE
SAE
SAE
SAE
SAE
SAE
SAE
SAE
SAE
SAE
SAE
SAE
SAE
SAE
SAE
SAE
SAE
SAE
SAE
SAE
SAE
SAE
SAE
SAE
SAE
SAE
SAE
SAE
Heartbeat CPU 0 instructions: 10000001 cycles: 3619583 heartbeat IPC: 2.76275 cumulative IPC: 2.76275 (Simulation time: 0 hr 13 min 47 sec) 
 Total Blocks : 196608 Invalid Blocks : 433
Heartbeat CPU 6 instructions: 10000001 cycles: 3619599 heartbeat IPC: 2.76274 cumulative IPC: 2.76274 (Simulation time: 0 hr 13 min 47 sec) 
 Total Blocks : 196608 Invalid Blocks : 433
Heartbeat CPU 7 instructions: 10000001 cycles: 3619604 heartbeat IPC: 2.76273 cumulative IPC: 2.76273 (Simulation time: 0 hr 13 min 47 sec) 
 Total Blocks : 196608 Invalid Blocks : 433
Heartbeat CPU 5 instructions: 10000001 cycles: 3619655 heartbeat IPC: 2.76269 cumulative IPC: 2.76269 (Simulation time: 0 hr 13 min 47 sec) 
 Total Blocks : 196608 Invalid Blocks : 433
Heartbeat CPU 2 instructions: 10000001 cycles: 3619669 heartbeat IPC: 2.76268 cumulative IPC: 2.76268 (Simulation time: 0 hr 13 min 47 sec) 
 Total Blocks : 196608 Invalid Blocks : 433
Heartbeat CPU 4 instructions: 10000001 cycles: 3619688 heartbeat IPC: 2.76267 cumulative IPC: 2.76267 (Simulation time: 0 hr 13 min 47 sec) 
 Total Blocks : 196608 Invalid Blocks : 433
Heartbeat CPU 1 instructions: 10000001 cycles: 3619703 heartbeat IPC: 2.76266 cumulative IPC: 2.76266 (Simulation time: 0 hr 13 min 47 sec) 
 Total Blocks : 196608 Invalid Blocks : 433
Heartbeat CPU 3 instructions: 10000001 cycles: 3619739 heartbeat IPC: 2.76263 cumulative IPC: 2.76263 (Simulation time: 0 hr 13 min 47 sec) 
 Total Blocks : 196608 Invalid Blocks : 433
SAE
SAE
SAE
SAE
SAE
SAE
SAE
SAE
SAE
SAE
SAE
SAE
SAE
SAE
SAE
SAE
SAE
SAE
SAE
SAE
SAE
SAE
SAE
SAE
SAE
SAE
SAE
SAE
SAE
SAE
SAE
SAE
SAE
SAE
SAE
SAE
SAE
SAE
SAE
SAE
SAE
SAE
SAE
SAE
SAE
SAE
SAE
SAE
SAE
SAE
SAE
SAE
SAE
SAE
SAE
SAE
SAE
SAE
SAE
SAE
SAE
SAE
SAE
SAE
SAE
SAE
SAE
SAE
SAE
SAE
SAE
SAE
SAE
SAE
SAE
SAE
SAE
SAE
SAE
SAE
SAE
SAE
SAE
SAE
SAE
SAE
SAE
SAE
SAE
SAE
SAE
SAE
SAE
SAE
SAE
SAE
SAE
SAE
SAE
SAE
SAE
SAE
SAE
SAE
SAE
SAE
SAE
SAE
SAE
SAE
SAE
SAE
SAE
SAE
SAE
SAE
SAE
SAE
SAE
SAE
SAE
SAE
SAE
SAE
SAE
SAE
SAE
SAE
SAE
SAE
SAE
SAE
SAE
SAE
SAE
SAE
SAE
SAE
SAE
SAE
SAE
SAE
SAE
SAE
SAE
SAE
SAE
SAE
SAE
SAE
SAE
SAE
SAE
SAE
SAE
SAE
SAE
SAE
SAE
SAE
SAE
SAE
SAE
SAE
SAE
SAE
SAE
SAE
SAE
SAE
SAE
SAE
SAE
SAE
SAE
SAE
SAE
SAE
SAE
SAE
SAE
SAE
SAE
SAE
SAE
SAE
SAE
SAE
SAE
SAE
SAE
SAE
SAE
SAE
SAE
SAE
SAE
SAE
SAE
SAE
SAE
SAE
SAE
SAE
SAE
SAE
SAE
SAE
SAE
SAE
SAE
SAE
SAE
SAE
SAE
SAE
SAE
SAE
SAE
SAE
SAE
SAE
SAE
SAE
SAE
SAE
SAE
SAE
SAE
SAE
SAE
SAE
SAE
SAE
SAE
SAE
SAE
SAE
SAE
SAE
SAE
SAE
SAE
SAE
SAE
SAE
SAE
SAE
SAE
SAE
SAE
SAE
SAE
SAE
SAE
SAE
SAE
SAE
SAE
SAE
SAE
SAE
SAE
SAE
SAE
SAE
SAE
SAE
SAE
SAE
SAE
SAE
SAE
SAE
SAE
SAE
SAE
SAE
SAE
SAE
SAE
SAE
SAE
SAE
SAE
SAE
SAE
SAE
SAE
SAE
SAE
SAE
SAE
SAE
SAE
SAE
SAE
SAE
SAE
SAE
SAE
SAE
SAE
SAE
SAE
SAE
SAE
SAE
SAE
SAE
SAE
SAE
SAE
SAE
SAE
SAE
SAE
SAE
SAE
SAE
SAE
SAE
SAE
SAE
SAE
SAE
SAE
SAE
SAE
SAE
SAE
SAE
SAE
SAE
SAE
SAE
SAE
SAE
SAE
SAE
SAE
SAE
SAE
SAE
SAE
SAE
SAE
SAE
SAE
SAE
SAE
SAE
SAE
SAE
SAE
SAE
SAE
SAE
SAE
SAE
SAE
SAE
SAE
SAE
SAE
SAE
SAE
SAE
SAE
SAE
SAE
SAE
SAE
SAE
SAE
SAE
SAE
SAE
SAE
SAE
SAE
SAE
SAE
SAE
SAE
SAE
SAE
SAE
SAE
SAE
SAE
SAE
SAE
SAE
SAE
SAE
SAE
SAE
SAE
SAE
SAE
SAE
SAE
SAE
SAE
SAE
SAE
SAE
SAE
SAE
SAE
SAE
SAE
SAE
SAE
SAE
SAE
SAE
SAE
SAE
SAE
SAE
SAE
SAE
SAE
SAE
SAE
SAE
SAE
SAE
SAE
SAE
SAE
SAE
SAE
SAE
SAE
SAE
SAE
SAE
SAE
SAE
SAE
SAE
SAE
SAE
SAE
SAE
SAE
SAE
SAE
SAE
SAE
SAE
SAE
SAE
SAE
SAE
SAE
SAE
SAE
SAE
SAE
SAE
SAE
SAE
SAE
SAE
SAE
SAE
SAE
SAE
SAE
SAE
SAE
SAE
SAE
SAE
SAE
SAE
SAE
SAE
SAE
SAE
SAE
SAE
SAE
SAE
SAE
SAE
SAE
SAE
SAE
SAE
SAE
SAE
SAE
SAE
SAE
SAE
SAE
SAE
SAE
SAE
SAE
SAE
SAE
SAE
SAE
SAE
SAE
SAE
SAE
SAE
SAE
SAE
SAE
SAE
SAE
SAE
SAE
SAE
SAE
SAE
SAE
SAE
SAE
SAE
SAE
SAE
SAE
SAE
SAE
SAE
SAE
SAE
SAE
SAE
SAE
SAE
SAE
SAE
SAE
SAE
SAE
SAE
SAE
SAE
SAE
SAE
SAE
SAE
SAE
SAE
SAE
SAE
SAE
SAE
SAE
SAE
SAE
SAE
SAE
SAE
SAE
SAE
SAE
SAE
SAE
SAE
SAE
SAE
SAE
SAE
SAE
SAE
SAE
SAE
SAE
SAE
SAE
SAE
SAE
SAE
SAE
SAE
SAE
SAE
SAE
SAE
SAE
SAE
SAE
SAE
SAE
SAE
SAE
SAE
SAE
SAE
SAE
SAE
SAE
SAE
SAE
SAE
SAE
SAE
SAE
SAE
SAE
SAE
SAE
SAE
SAE
SAE
SAE
SAE
SAE
SAE
SAE
SAE
SAE
SAE
SAE
SAE
SAE
SAE
SAE
SAE
SAE
SAE
SAE
SAE
SAE
SAE
SAE
SAE
SAE
SAE
SAE
SAE
SAE
SAE
SAE
SAE
SAE
SAE
SAE
SAE
SAE
SAE
SAE
SAE
SAE
SAE
SAE
SAE
SAE
SAE
SAE
SAE
SAE
SAE
SAE
SAE
SAE
SAE
SAE
SAE
SAE
SAE
SAE
SAE
SAE
SAE
SAE
SAE
SAE
SAE
SAE
SAE
SAE
SAE
SAE
SAE
SAE
SAE
SAE
SAE
SAE
SAE
SAE
SAE
SAE
SAE
SAE
SAE
SAE
SAE
SAE
SAE
SAE
SAE
SAE
SAE
SAE
SAE
SAE
SAE
SAE
SAE
SAE
SAE
SAE
SAE
SAE
SAE
SAE
SAE
SAE
SAE
SAE
SAE
SAE
SAE
SAE
SAE
SAE
SAE
SAE
SAE
SAE
SAE
SAE
SAE
SAE
SAE
SAE
SAE
SAE
SAE
SAE
SAE
SAE
SAE
SAE
SAE
SAE
SAE
SAE
SAE
SAE
SAE
SAE
SAE
SAE
SAE
SAE
SAE
SAE
SAE
SAE
SAE
SAE
SAE
SAE
SAE
SAE
SAE
SAE
SAE
SAE
SAE
SAE
SAE
SAE
SAE
SAE
SAE
SAE
SAE
SAE
SAE
SAE
SAE
SAE
SAE
SAE
SAE
SAE
SAE
SAE
SAE
SAE
SAE
SAE
SAE
SAE
SAE
SAE
SAE
SAE
SAE
SAE
SAE
SAE
SAE
SAE
SAE
SAE
SAE
SAE
SAE
SAE
SAE
SAE
SAE
SAE
SAE
SAE
SAE
SAE
SAE
SAE
SAE
SAE
SAE
SAE
SAE
SAE
SAE
SAE
SAE
SAE
SAE
SAE
SAE
SAE
SAE
SAE
SAE
SAE
SAE
SAE
SAE
SAE
SAE
SAE
SAE
SAE
SAE
SAE
SAE
SAE
SAE
SAE
SAE
SAE
SAE
SAE
SAE
SAE
SAE
SAE
SAE
SAE
SAE
SAE
SAE
SAE
SAE
SAE
SAE
SAE
SAE
SAE
SAE
SAE
SAE
SAE
SAE
SAE
SAE
SAE
SAE
SAE
SAE
SAE
SAE
SAE
SAE
SAE
SAE
SAE
SAE
SAE
SAE
SAE
SAE
SAE
SAE
SAE
SAE
SAE
SAE
SAE
SAE
SAE
SAE
SAE
SAE
SAE
SAE
SAE
SAE
SAE
SAE
SAE
SAE
SAE
SAE
SAE
SAE
SAE
SAE
SAE
SAE
SAE
SAE
SAE
SAE
SAE
SAE
Heartbeat CPU 6 instructions: 20000001 cycles: 7691647 heartbeat IPC: 2.45577 cumulative IPC: 2.60022 (Simulation time: 0 hr 21 min 23 sec) 
 Total Blocks : 196608 Invalid Blocks : 778
Heartbeat CPU 0 instructions: 20000001 cycles: 7691714 heartbeat IPC: 2.45572 cumulative IPC: 2.6002 (Simulation time: 0 hr 21 min 23 sec) 
 Total Blocks : 196608 Invalid Blocks : 778
Heartbeat CPU 7 instructions: 20000001 cycles: 7691758 heartbeat IPC: 2.4557 cumulative IPC: 2.60019 (Simulation time: 0 hr 21 min 23 sec) 
 Total Blocks : 196608 Invalid Blocks : 778
Heartbeat CPU 2 instructions: 20000001 cycles: 7691792 heartbeat IPC: 2.45572 cumulative IPC: 2.60017 (Simulation time: 0 hr 21 min 23 sec) 
 Total Blocks : 196608 Invalid Blocks : 778
Heartbeat CPU 4 instructions: 20000001 cycles: 7691799 heartbeat IPC: 2.45573 cumulative IPC: 2.60017 (Simulation time: 0 hr 21 min 23 sec) 
 Total Blocks : 196608 Invalid Blocks : 778
Heartbeat CPU 5 instructions: 20000001 cycles: 7691810 heartbeat IPC: 2.4557 cumulative IPC: 2.60017 (Simulation time: 0 hr 21 min 23 sec) 
 Total Blocks : 196608 Invalid Blocks : 778
Heartbeat CPU 1 instructions: 20000001 cycles: 7692026 heartbeat IPC: 2.4556 cumulative IPC: 2.6001 (Simulation time: 0 hr 21 min 23 sec) 
 Total Blocks : 196608 Invalid Blocks : 778
Heartbeat CPU 3 instructions: 20000001 cycles: 7692087 heartbeat IPC: 2.45559 cumulative IPC: 2.60007 (Simulation time: 0 hr 21 min 23 sec) 
 Total Blocks : 196608 Invalid Blocks : 778
SAE
SAE
SAE
SAE
SAE
SAE
SAE
SAE
SAE
SAE
SAE
SAE
SAE
SAE
SAE
SAE
SAE
SAE
SAE
SAE
SAE
SAE
SAE
SAE
SAE
SAE
SAE
SAE
SAE
SAE
SAE
SAE
SAE
SAE
SAE
SAE
SAE
SAE
SAE
SAE
SAE
SAE
SAE
SAE
SAE
SAE
SAE
SAE
SAE
SAE
SAE
SAE
SAE
SAE
SAE
SAE
SAE
SAE
SAE
SAE
SAE
SAE
SAE
SAE
SAE
SAE
SAE
SAE
SAE
SAE
SAE
SAE
SAE
SAE
SAE
SAE
SAE
SAE
SAE
SAE
SAE
SAE
SAE
SAE
SAE
SAE
SAE
SAE
SAE
SAE
SAE
SAE
SAE
SAE
SAE
SAE
SAE
SAE
SAE
SAE
SAE
SAE
SAE
SAE
SAE
SAE
SAE
SAE
SAE
SAE
SAE
SAE
SAE
SAE
SAE
SAE
SAE
SAE
SAE
SAE
SAE
SAE
SAE
SAE
SAE
SAE
SAE
SAE
SAE
SAE
SAE
SAE
SAE
SAE
SAE
SAE
SAE
SAE
SAE
SAE
SAE
SAE
SAE
SAE
SAE
SAE
SAE
SAE
SAE
SAE
SAE
SAE
SAE
SAE
SAE
SAE
SAE
SAE
SAE
SAE
SAE
SAE
SAE
SAE
SAE
SAE
SAE
SAE
SAE
SAE
SAE
SAE
SAE
SAE
SAE
SAE
SAE
SAE
SAE
SAE
SAE
SAE
SAE
SAE
SAE
SAE
SAE
SAE
SAE
SAE
SAE
SAE
SAE
SAE
SAE
SAE
SAE
SAE
SAE
SAE
SAE
SAE
SAE
SAE
SAE
SAE
SAE
SAE
SAE
SAE
SAE
SAE
SAE
SAE
SAE
SAE
SAE
SAE
SAE
SAE
SAE
SAE
SAE
SAE
SAE
SAE
SAE
SAE
SAE
SAE
SAE
SAE
SAE
SAE
SAE
SAE
SAE
SAE
SAE
SAE
SAE
SAE
SAE
SAE
SAE
SAE
SAE
SAE
SAE
SAE
SAE
SAE
SAE
SAE
SAE
SAE
SAE
SAE
SAE
SAE
SAE
SAE
SAE
SAE
SAE
SAE
SAE
SAE
SAE
SAE
SAE
SAE
SAE
SAE
SAE
SAE
SAE
SAE
SAE
SAE
SAE
SAE
SAE
SAE
SAE
SAE
SAE
SAE
SAE
SAE
SAE
SAE
SAE
SAE
SAE
SAE
SAE
SAE
SAE
SAE
SAE
SAE
SAE
SAE
SAE
SAE
SAE
SAE
SAE
SAE
SAE
SAE
SAE
SAE
SAE
SAE
SAE
SAE
SAE
SAE
SAE
SAE
SAE
SAE
SAE
SAE
SAE
SAE
SAE
SAE
SAE
SAE
SAE
SAE
SAE
SAE
SAE
SAE
SAE
SAE
SAE
SAE
SAE
SAE
SAE
SAE
SAE
SAE
SAE
SAE
SAE
SAE
SAE
SAE
SAE
SAE
SAE
SAE
SAE
SAE
SAE
SAE
SAE
SAE
SAE
SAE
SAE
SAE
SAE
SAE
SAE
SAE
SAE
SAE
SAE
SAE
SAE
SAE
SAE
SAE
SAE
SAE
SAE
SAE
SAE
SAE
SAE
SAE
SAE
SAE
SAE
SAE
SAE
SAE
SAE
SAE
SAE
SAE
SAE
SAE
SAE
SAE
SAE
SAE
SAE
SAE
SAE
SAE
SAE
SAE
SAE
SAE
SAE
SAE
SAE
SAE
SAE
SAE
SAE
SAE
SAE
SAE
SAE
SAE
SAE
SAE
SAE
SAE
SAE
SAE
SAE
SAE
SAE
SAE
SAE
SAE
SAE
SAE
SAE
SAE
SAE
SAE
SAE
SAE
SAE
SAE
SAE
SAE
SAE
SAE
SAE
SAE
SAE
SAE
SAE
SAE
SAE
SAE
SAE
SAE
SAE
SAE
SAE
SAE
SAE
SAE
SAE
SAE
SAE
SAE
SAE
SAE
SAE
SAE
SAE
SAE
SAE
SAE
SAE
SAE
SAE
SAE
SAE
SAE
SAE
SAE
SAE
SAE
SAE
SAE
SAE
SAE
SAE
SAE
SAE
SAE
SAE
SAE
SAE
SAE
SAE
SAE
SAE
SAE
SAE
SAE
SAE
SAE
SAE
SAE
SAE
SAE
SAE
SAE
SAE
SAE
SAE
SAE
SAE
SAE
SAE
SAE
SAE
SAE
SAE
SAE
SAE
SAE
SAE
SAE
SAE
SAE
SAE
SAE
SAE
SAE
SAE
SAE
SAE
SAE
SAE
SAE
SAE
SAE
SAE
SAE
SAE
SAE
SAE
SAE
SAE
SAE
SAE
SAE
SAE
SAE
SAE
SAE
SAE
SAE
SAE
SAE
SAE
SAE
SAE
SAE
SAE
SAE
SAE
SAE
SAE
SAE
SAE
SAE
SAE
SAE
SAE
SAE
SAE
SAE
SAE
SAE
SAE
SAE
SAE
SAE
SAE
SAE
SAE
SAE
SAE
SAE
SAE
SAE
SAE
SAE
SAE
SAE
SAE
SAE
SAE
SAE
SAE
SAE
SAE
SAE
SAE
SAE
SAE
SAE
SAE
SAE
SAE
SAE
SAE
SAE
SAE
SAE
SAE
SAE
SAE
SAE
SAE
SAE
SAE
SAE
SAE
SAE
SAE
SAE
SAE
SAE
SAE
SAE
SAE
SAE
SAE
SAE
SAE
SAE
SAE
SAE
SAE
SAE
SAE
SAE
SAE
SAE
SAE
SAE
SAE
SAE
SAE
SAE
SAE
SAE
SAE
SAE
SAE
SAE
SAE
SAE
SAE
SAE
SAE
SAE
SAE
SAE
SAE
SAE
SAE
SAE
SAE
SAE
SAE
SAE
SAE
SAE
SAE
SAE
SAE
SAE
SAE
SAE
SAE
SAE
SAE
SAE
SAE
SAE
SAE
SAE
SAE
SAE
SAE
SAE
SAE
SAE
SAE
SAE
SAE
SAE
SAE
SAE
SAE
SAE
SAE
SAE
SAE
SAE
SAE
SAE
SAE
SAE
SAE
SAE
SAE
SAE
SAE
SAE
SAE
SAE
SAE
SAE
SAE
SAE
SAE
SAE
SAE
SAE
SAE
SAE
SAE
SAE
SAE
SAE
SAE
SAE
SAE
SAE
SAE
SAE
SAE
SAE
SAE
SAE
SAE
SAE
SAE
SAE
SAE
SAE
SAE
SAE
SAE
SAE
SAE
SAE
SAE
SAE
SAE
SAE
SAE
SAE
SAE
SAE
SAE
SAE
SAE
SAE
SAE
SAE
SAE
SAE
SAE
SAE
SAE
SAE
SAE
SAE
SAE
SAE
SAE
SAE
SAE
SAE
SAE
SAE
SAE
SAE
SAE
SAE
SAE
SAE
SAE
SAE
SAE
SAE
SAE
SAE
SAE
SAE
SAE
SAE
SAE
SAE
SAE
SAE
SAE
SAE
SAE
SAE
SAE
SAE
SAE
SAE
SAE
SAE
SAE
SAE
SAE
SAE
SAE
SAE
SAE
SAE
SAE
SAE
SAE
SAE
SAE
SAE
SAE
SAE
SAE
SAE
SAE
SAE
SAE
SAE
SAE
SAE
SAE
SAE
SAE
SAE
SAE
SAE
SAE
SAE
SAE
SAE
SAE
SAE
SAE
SAE
SAE
SAE
SAE
SAE
SAE
SAE
SAE
SAE
SAE
SAE
SAE
SAE
SAE
SAE
SAE
SAE
SAE
SAE
SAE
SAE
SAE
SAE
SAE
SAE
SAE
SAE
SAE
SAE
SAE
SAE
SAE
SAE
SAE
SAE
SAE
SAE
SAE
SAE
SAE
SAE
SAE
SAE
SAE
SAE
SAE
SAE
SAE
SAE
SAE
SAE
SAE
SAE
SAE
SAE
SAE
SAE
SAE
SAE
SAE
SAE
SAE
SAE
SAE
SAE
SAE
SAE
SAE
SAE
SAE
SAE
SAE
SAE
SAE
SAE
SAE
SAE
SAE
SAE
SAE
SAE
SAE
SAE
SAE
SAE
SAE
SAE
SAE
SAE
SAE
SAE
SAE
SAE
SAE
SAE
SAE
SAE
SAE
SAE
SAE
SAE
SAE
SAE
SAE
SAE
SAE
SAE
SAE
SAE
SAE
SAE
SAE
SAE
SAE
SAE
SAE
SAE
SAE
SAE
SAE
SAE
SAE
SAE
SAE
SAE
SAE
SAE
SAE
SAE
SAE
SAE
SAE
SAE
SAE
SAE
SAE
SAE
SAE
SAE
SAE
SAE
SAE
SAE
SAE
SAE
SAE
SAE
SAE
SAE
SAE
SAE
SAE
SAE
SAE
SAE
SAE
SAE
SAE
SAE
SAE
Heartbeat CPU 6 instructions: 30000000 cycles: 11747525 heartbeat IPC: 2.46556 cumulative IPC: 2.55373 (Simulation time: 0 hr 28 min 26 sec) 
 Total Blocks : 196608 Invalid Blocks : 781
Heartbeat CPU 0 instructions: 30000000 cycles: 11747586 heartbeat IPC: 2.46556 cumulative IPC: 2.55372 (Simulation time: 0 hr 28 min 26 sec) 
 Total Blocks : 196608 Invalid Blocks : 781
Heartbeat CPU 7 instructions: 30000000 cycles: 11747686 heartbeat IPC: 2.46553 cumulative IPC: 2.55369 (Simulation time: 0 hr 28 min 26 sec) 
 Total Blocks : 196608 Invalid Blocks : 781
Heartbeat CPU 2 instructions: 30000000 cycles: 11747692 heartbeat IPC: 2.46554 cumulative IPC: 2.55369 (Simulation time: 0 hr 28 min 26 sec) 
 Total Blocks : 196608 Invalid Blocks : 781
Heartbeat CPU 5 instructions: 30000000 cycles: 11747735 heartbeat IPC: 2.46553 cumulative IPC: 2.55368 (Simulation time: 0 hr 28 min 26 sec) 
 Total Blocks : 196608 Invalid Blocks : 781
Heartbeat CPU 4 instructions: 30000000 cycles: 11747738 heartbeat IPC: 2.46552 cumulative IPC: 2.55368 (Simulation time: 0 hr 28 min 26 sec) 
 Total Blocks : 196608 Invalid Blocks : 781
Heartbeat CPU 1 instructions: 30000000 cycles: 11748078 heartbeat IPC: 2.46545 cumulative IPC: 2.55361 (Simulation time: 0 hr 28 min 26 sec) 
 Total Blocks : 196608 Invalid Blocks : 781
Heartbeat CPU 3 instructions: 30000000 cycles: 11748152 heartbeat IPC: 2.46544 cumulative IPC: 2.55359 (Simulation time: 0 hr 28 min 26 sec) 
 Total Blocks : 196608 Invalid Blocks : 781
SAE
SAE
SAE
SAE
SAE
SAE
SAE
SAE
SAE
SAE
SAE
SAE
SAE
SAE
SAE
SAE
SAE
SAE
SAE
SAE
SAE
SAE
SAE
SAE
SAE
SAE
SAE
SAE
SAE
SAE
SAE
SAE
SAE
SAE
SAE
SAE
SAE
SAE
SAE
SAE
SAE
SAE
SAE
SAE
SAE
SAE
SAE
SAE
SAE
SAE
SAE
SAE
SAE
SAE
SAE
SAE
SAE
SAE
SAE
SAE
SAE
SAE
SAE
SAE
SAE
SAE
SAE
SAE
SAE
SAE
SAE
SAE
SAE
SAE
SAE
SAE
SAE
SAE
SAE
SAE
SAE
SAE
SAE
SAE
SAE
SAE
SAE
SAE
SAE
SAE
SAE
SAE
SAE
SAE
SAE
SAE
SAE
SAE
SAE
SAE
SAE
SAE
SAE
SAE
SAE
SAE
SAE
SAE
SAE
SAE
SAE
SAE
SAE
SAE
SAE
SAE
SAE
SAE
SAE
SAE
SAE
SAE
SAE
SAE
SAE
SAE
SAE
SAE
SAE
SAE
SAE
SAE
SAE
SAE
SAE
SAE
SAE
SAE
SAE
SAE
SAE
SAE
SAE
SAE
SAE
SAE
SAE
SAE
SAE
SAE
SAE
SAE
SAE
SAE
SAE
SAE
SAE
SAE
SAE
SAE
SAE
SAE
SAE
SAE
SAE
SAE
SAE
SAE
SAE
SAE
SAE
SAE
SAE
SAE
SAE
SAE
SAE
SAE
SAE
SAE
SAE
SAE
SAE
SAE
SAE
SAE
SAE
SAE
SAE
SAE
SAE
SAE
SAE
SAE
SAE
SAE
SAE
SAE
SAE
SAE
SAE
SAE
SAE
SAE
SAE
SAE
SAE
SAE
SAE
SAE
SAE
SAE
SAE
SAE
SAE
SAE
SAE
SAE
SAE
SAE
SAE
SAE
SAE
SAE
SAE
SAE
SAE
SAE
SAE
SAE
SAE
SAE
SAE
SAE
SAE
SAE
SAE
SAE
SAE
SAE
SAE
SAE
SAE
SAE
SAE
SAE
SAE
SAE
SAE
SAE
SAE
SAE
SAE
SAE
SAE
SAE
SAE
SAE
SAE
SAE
SAE
SAE
SAE
SAE
SAE
SAE
SAE
SAE
SAE
SAE
SAE
SAE
SAE
SAE
SAE
SAE
SAE
SAE
SAE
SAE
SAE
SAE
SAE
SAE
SAE
SAE
SAE
SAE
SAE
SAE
SAE
SAE
SAE
SAE
SAE
SAE
SAE
SAE
SAE
SAE
SAE
SAE
SAE
SAE
SAE
SAE
SAE
SAE
SAE
SAE
SAE
SAE
SAE
SAE
SAE
SAE
SAE
SAE
SAE
SAE
SAE
SAE
SAE
SAE
SAE
SAE
SAE
SAE
SAE
SAE
SAE
SAE
SAE
SAE
SAE
SAE
SAE
SAE
SAE
SAE
SAE
SAE
SAE
SAE
SAE
SAE
SAE
SAE
SAE
SAE
SAE
SAE
SAE
SAE
SAE
SAE
SAE
SAE
SAE
SAE
SAE
SAE
SAE
SAE
SAE
SAE
SAE
SAE
SAE
SAE
SAE
SAE
SAE
SAE
SAE
SAE
SAE
SAE
SAE
SAE
SAE
SAE
SAE
SAE
SAE
SAE
SAE
SAE
SAE
SAE
SAE
SAE
SAE
SAE
SAE
SAE
SAE
SAE
SAE
SAE
SAE
SAE
SAE
SAE
SAE
SAE
SAE
SAE
SAE
SAE
SAE
SAE
SAE
SAE
SAE
SAE
SAE
SAE
SAE
SAE
SAE
SAE
SAE
SAE
SAE
SAE
SAE
SAE
SAE
SAE
SAE
SAE
SAE
SAE
SAE
SAE
SAE
SAE
SAE
SAE
SAE
SAE
SAE
SAE
SAE
SAE
SAE
SAE
SAE
SAE
SAE
SAE
SAE
SAE
SAE
SAE
SAE
SAE
SAE
SAE
SAE
SAE
SAE
SAE
SAE
SAE
SAE
SAE
SAE
SAE
SAE
SAE
SAE
SAE
SAE
SAE
SAE
SAE
SAE
SAE
SAE
SAE
SAE
SAE
SAE
SAE
SAE
SAE
SAE
SAE
SAE
SAE
SAE
SAE
SAE
SAE
SAE
SAE
SAE
SAE
SAE
SAE
SAE
SAE
SAE
SAE
SAE
SAE
SAE
SAE
SAE
SAE
SAE
SAE
SAE
SAE
SAE
SAE
SAE
SAE
SAE
SAE
SAE
SAE
SAE
SAE
SAE
SAE
SAE
SAE
SAE
SAE
SAE
SAE
SAE
SAE
SAE
SAE
SAE
SAE
SAE
SAE
SAE
SAE
SAE
SAE
SAE
SAE
SAE
SAE
SAE
SAE
SAE
SAE
SAE
SAE
SAE
SAE
SAE
SAE
SAE
SAE
SAE
SAE
SAE
SAE
SAE
SAE
SAE
SAE
SAE
SAE
SAE
SAE
SAE
SAE
SAE
SAE
SAE
SAE
SAE
SAE
SAE
SAE
SAE
SAE
SAE
SAE
SAE
SAE
SAE
SAE
SAE
SAE
SAE
SAE
SAE
SAE
SAE
SAE
SAE
SAE
SAE
SAE
SAE
SAE
SAE
SAE
SAE
SAE
SAE
SAE
SAE
SAE
SAE
SAE
SAE
SAE
SAE
SAE
SAE
SAE
SAE
SAE
SAE
SAE
SAE
SAE
SAE
SAE
SAE
SAE
SAE
SAE
SAE
SAE
SAE
SAE
SAE
SAE
SAE
SAE
SAE
SAE
SAE
SAE
SAE
SAE
SAE
SAE
SAE
SAE
SAE
SAE
SAE
SAE
SAE
SAE
SAE
SAE
SAE
SAE
SAE
SAE
SAE
SAE
SAE
SAE
SAE
SAE
SAE
SAE
SAE
SAE
SAE
SAE
SAE
SAE
SAE
SAE
SAE
SAE
SAE
SAE
SAE
SAE
SAE
SAE
SAE
SAE
SAE
SAE
SAE
SAE
SAE
SAE
SAE
SAE
SAE
SAE
SAE
SAE
SAE
SAE
SAE
SAE
SAE
SAE
SAE
SAE
SAE
SAE
SAE
SAE
SAE
SAE
SAE
SAE
SAE
SAE
SAE
SAE
SAE
SAE
SAE
SAE
SAE
SAE
SAE
SAE
SAE
SAE
SAE
SAE
SAE
SAE
SAE
SAE
SAE
SAE
SAE
SAE
SAE
SAE
SAE
SAE
SAE
SAE
SAE
SAE
SAE
SAE
SAE
SAE
SAE
SAE
SAE
SAE
SAE
SAE
SAE
SAE
SAE
SAE
SAE
SAE
SAE
SAE
SAE
SAE
SAE
SAE
SAE
SAE
SAE
SAE
SAE
SAE
SAE
SAE
SAE
SAE
SAE
SAE
SAE
SAE
SAE
SAE
SAE
SAE
SAE
SAE
SAE
SAE
SAE
SAE
SAE
SAE
SAE
SAE
SAE
SAE
SAE
SAE
SAE
SAE
SAE
SAE
SAE
SAE
SAE
SAE
SAE
SAE
SAE
SAE
SAE
SAE
SAE
SAE
SAE
SAE
SAE
SAE
SAE
SAE
SAE
SAE
SAE
SAE
SAE
SAE
SAE
SAE
SAE
SAE
SAE
SAE
SAE
SAE
SAE
SAE
SAE
SAE
SAE
SAE
SAE
SAE
SAE
SAE
SAE
SAE
SAE
SAE
SAE
SAE
SAE
SAE
SAE
SAE
SAE
SAE
SAE
SAE
SAE
SAE
SAE
SAE
SAE
SAE
SAE
SAE
SAE
SAE
SAE
SAE
SAE
SAE
SAE
SAE
SAE
SAE
SAE
SAE
SAE
SAE
SAE
SAE
SAE
SAE
SAE
SAE
SAE
SAE
SAE
SAE
SAE
SAE
SAE
SAE
SAE
SAE
SAE
SAE
SAE
SAE
SAE
SAE
SAE
SAE
SAE
SAE
SAE
SAE
SAE
SAE
SAE
SAE
SAE
SAE
SAE
SAE
SAE
SAE
SAE
SAE
SAE
SAE
SAE
SAE
SAE
SAE
SAE
SAE
SAE
SAE
SAE
SAE
SAE
SAE
SAE
SAE
SAE
SAE
SAE
SAE
SAE
SAE
SAE
SAE
SAE
SAE
SAE
SAE
SAE
SAE
SAE
SAE
SAE
SAE
SAE
SAE
SAE
SAE
SAE
SAE
SAE
SAE
SAE
SAE
SAE
SAE
SAE
SAE
SAE
SAE
SAE
SAE
SAE
SAE
SAE
SAE
SAE
SAE
SAE
SAE
SAE
SAE
SAE
SAE
SAE
SAE
SAE
SAE
SAE
SAE
SAE
SAE
SAE
SAE
SAE
SAE
SAE
SAE
SAE
SAE
SAE
SAE
SAE
SAE
SAE
SAE
SAE
SAE
SAE
SAE
SAE
SAE
SAE
SAE
SAE
SAE
SAE
SAE
SAE
SAE
SAE
SAE
SAE
SAE
SAE
SAE
SAE
SAE
SAE
SAE
SAE
SAE
SAE
SAE
SAE
SAE
SAE
SAE
SAE
SAE
SAE
SAE
SAE
SAE
SAE
SAE
SAE
SAE
SAE
SAE
SAE
SAE
SAE
SAE
Heartbeat CPU 6 instructions: 40000000 cycles: 15802076 heartbeat IPC: 2.46636 cumulative IPC: 2.53131 (Simulation time: 0 hr 34 min 20 sec) 
 Total Blocks : 196608 Invalid Blocks : 914
Heartbeat CPU 0 instructions: 40000000 cycles: 15802284 heartbeat IPC: 2.46627 cumulative IPC: 2.53128 (Simulation time: 0 hr 34 min 20 sec) 
 Total Blocks : 196608 Invalid Blocks : 914
Heartbeat CPU 4 instructions: 40000000 cycles: 15802323 heartbeat IPC: 2.46634 cumulative IPC: 2.53127 (Simulation time: 0 hr 34 min 20 sec) 
 Total Blocks : 196608 Invalid Blocks : 914
Heartbeat CPU 2 instructions: 40000000 cycles: 15802337 heartbeat IPC: 2.46631 cumulative IPC: 2.53127 (Simulation time: 0 hr 34 min 20 sec) 
 Total Blocks : 196608 Invalid Blocks : 914
Heartbeat CPU 5 instructions: 40000000 cycles: 15802379 heartbeat IPC: 2.46631 cumulative IPC: 2.53126 (Simulation time: 0 hr 34 min 20 sec) 
 Total Blocks : 196608 Invalid Blocks : 914
Heartbeat CPU 7 instructions: 40000000 cycles: 15802399 heartbeat IPC: 2.46627 cumulative IPC: 2.53126 (Simulation time: 0 hr 34 min 20 sec) 
 Total Blocks : 196608 Invalid Blocks : 914
Heartbeat CPU 1 instructions: 40000000 cycles: 15802842 heartbeat IPC: 2.46623 cumulative IPC: 2.53119 (Simulation time: 0 hr 34 min 20 sec) 
 Total Blocks : 196608 Invalid Blocks : 914
Heartbeat CPU 3 instructions: 40000000 cycles: 15802953 heartbeat IPC: 2.46621 cumulative IPC: 2.53117 (Simulation time: 0 hr 34 min 20 sec) 
 Total Blocks : 196608 Invalid Blocks : 914
SAE
SAE
SAE
SAE
SAE
SAE
SAE
SAE
SAE
SAE
SAE
SAE
SAE
SAE
SAE
SAE
SAE
SAE
SAE
SAE
SAE
SAE
SAE
SAE
SAE
SAE
SAE
SAE
SAE
SAE
SAE
SAE
SAE
SAE
SAE
SAE
SAE
SAE
SAE
SAE
SAE
SAE
SAE
SAE
SAE
SAE
SAE
SAE
SAE
SAE
SAE
SAE
SAE
SAE
SAE
SAE
SAE
SAE
SAE
SAE
SAE
SAE
SAE
SAE
SAE
SAE
SAE
SAE
SAE
SAE
SAE
SAE
SAE
SAE
SAE
SAE
SAE
SAE
SAE
SAE
SAE
SAE
SAE
SAE
SAE
SAE
SAE
SAE
SAE
SAE
SAE
SAE
SAE
SAE
SAE
SAE
SAE
SAE
SAE
SAE
SAE
SAE
SAE
SAE
SAE
SAE
SAE
SAE
SAE
SAE
SAE
SAE
SAE
SAE
SAE
SAE
SAE
SAE
SAE
SAE
SAE
SAE
SAE
SAE
SAE
SAE
SAE
SAE
SAE
SAE
SAE
SAE
SAE
SAE
SAE
SAE
SAE
SAE
SAE
SAE
SAE
SAE
SAE
SAE
SAE
SAE
SAE
SAE
SAE
SAE
SAE
SAE
SAE
SAE
SAE
SAE
SAE
SAE
SAE
SAE
SAE
SAE
SAE
SAE
SAE
SAE
SAE
SAE
SAE
SAE
SAE
SAE
SAE
SAE
SAE
SAE
SAE
SAE
SAE
SAE
SAE
SAE
SAE
SAE
SAE
SAE
SAE
SAE
SAE
SAE
SAE
SAE
SAE
SAE
SAE
SAE
SAE
SAE
SAE
SAE
SAE
SAE
SAE
SAE
SAE
SAE
SAE
SAE
SAE
SAE
SAE
SAE
SAE
SAE
SAE
SAE
SAE
SAE
SAE
SAE
SAE
SAE
SAE
SAE
SAE
SAE
SAE
SAE
SAE
SAE
SAE
SAE
SAE
SAE
SAE
SAE
SAE
SAE
SAE
SAE
SAE
SAE
SAE
SAE
SAE
SAE
SAE
SAE
SAE
SAE
SAE
SAE
SAE
SAE
SAE
SAE
SAE
SAE
SAE
SAE
SAE
SAE
SAE
SAE
SAE
SAE
SAE
SAE
SAE
SAE
SAE
SAE
SAE
SAE
SAE
SAE
SAE
SAE
SAE
SAE
SAE
SAE
SAE
SAE
SAE
SAE
SAE
SAE
SAE
SAE
SAE
SAE
SAE
SAE
SAE
SAE
SAE
SAE
SAE
SAE
SAE
SAE
SAE
SAE
SAE
SAE
SAE
SAE
SAE
SAE
SAE
SAE
SAE
SAE
SAE
SAE
SAE
SAE
SAE
SAE
SAE
SAE
SAE
SAE
SAE
SAE
SAE
SAE
SAE
SAE
SAE
SAE
SAE
SAE
SAE
SAE
SAE
SAE
SAE
SAE
SAE
SAE
SAE
SAE
SAE
SAE
SAE
SAE
SAE
SAE
SAE
SAE
SAE
SAE
SAE
SAE
SAE
SAE
SAE
SAE
SAE
SAE
SAE
SAE
SAE
SAE
SAE
SAE
SAE
SAE
SAE
SAE
SAE
SAE
SAE
SAE
SAE
SAE
SAE
SAE
SAE
SAE
SAE
SAE
SAE
SAE
SAE
SAE
SAE
SAE
SAE
SAE
SAE
SAE
SAE
SAE
SAE
SAE
SAE
SAE
SAE
SAE
SAE
SAE
SAE
SAE
SAE
SAE
SAE
SAE
SAE
SAE
SAE
SAE
SAE
SAE
SAE
SAE
SAE
SAE
SAE
SAE
SAE
SAE
SAE
SAE
SAE
SAE
SAE
SAE
SAE
SAE
SAE
SAE
SAE
SAE
SAE
SAE
SAE
SAE
SAE
SAE
SAE
SAE
SAE
SAE
SAE
SAE
SAE
SAE
SAE
SAE
SAE
SAE
SAE
SAE
SAE
SAE
SAE
SAE
SAE
SAE
SAE
SAE
SAE
SAE
SAE
SAE
SAE
SAE
SAE
SAE
SAE
SAE
SAE
SAE
SAE
SAE
SAE
SAE
SAE
SAE
SAE
SAE
SAE
SAE
SAE
SAE
SAE
SAE
SAE
SAE
SAE
SAE
SAE
SAE
SAE
SAE
SAE
SAE
SAE
SAE
SAE
SAE
SAE
SAE
SAE
SAE
SAE
SAE
SAE
SAE
SAE
SAE
SAE
SAE
SAE
SAE
SAE
SAE
SAE
SAE
SAE
SAE
SAE
SAE
SAE
SAE
SAE
SAE
SAE
SAE
SAE
SAE
SAE
SAE
SAE
SAE
SAE
SAE
SAE
SAE
SAE
SAE
SAE
SAE
SAE
SAE
SAE
SAE
SAE
SAE
SAE
SAE
SAE
SAE
SAE
SAE
SAE
SAE
SAE
SAE
SAE
SAE
SAE
SAE
SAE
SAE
SAE
SAE
SAE
SAE
SAE
SAE
SAE
SAE
SAE
SAE
SAE
SAE
SAE
SAE
SAE
SAE
SAE
SAE
SAE
SAE
SAE
SAE
SAE
SAE
SAE
SAE
SAE
SAE
SAE
SAE
SAE
SAE
SAE
SAE
SAE
SAE
SAE
SAE
SAE
SAE
SAE
SAE
SAE
SAE
SAE
SAE
SAE
SAE
SAE
SAE
SAE
SAE
SAE
SAE
SAE
SAE
SAE
SAE
SAE
SAE
SAE
SAE
SAE
SAE
SAE
SAE
SAE
SAE
SAE
SAE
SAE
SAE
SAE
SAE
SAE
SAE
SAE
SAE
SAE
SAE
SAE
SAE
SAE
SAE
SAE
SAE
SAE
SAE
SAE
SAE
SAE
SAE
SAE
SAE
SAE
SAE
SAE
SAE
SAE
SAE
SAE
SAE
SAE
SAE
SAE
SAE
SAE
SAE
SAE
SAE
SAE
SAE
SAE
SAE
SAE
SAE
SAE
SAE
SAE
SAE
SAE
SAE
SAE
SAE
SAE
SAE
SAE
SAE
SAE
SAE
SAE
SAE
SAE
SAE
SAE
SAE
SAE
SAE
SAE
SAE
SAE
SAE
SAE
SAE
SAE
SAE
SAE
SAE
SAE
SAE
SAE
SAE
SAE
SAE
SAE
SAE
SAE
SAE
SAE
SAE
SAE
SAE
SAE
SAE
SAE
SAE
SAE
SAE
SAE
SAE
SAE
SAE
SAE
SAE
SAE
SAE
SAE
SAE
SAE
SAE
SAE
SAE
SAE
SAE
SAE
SAE
SAE
SAE
SAE
SAE
SAE
SAE
SAE
SAE
SAE
SAE
SAE
SAE
SAE
SAE
SAE
SAE
SAE
SAE
SAE
SAE
SAE
SAE
SAE
SAE
SAE
SAE
SAE
SAE
SAE
SAE
SAE
SAE
SAE
SAE
SAE
SAE
SAE
SAE
SAE
SAE
SAE
SAE
SAE
SAE
SAE
SAE
SAE
SAE
SAE
SAE
SAE
SAE
SAE
SAE
SAE
SAE
SAE
SAE
SAE
SAE
SAE
SAE
SAE
SAE
SAE
SAE
SAE
SAE
SAE
SAE
SAE
SAE
SAE
SAE
SAE
SAE
SAE
SAE
SAE
SAE
SAE
SAE
SAE
SAE
SAE
SAE
SAE
SAE
SAE
SAE
SAE
SAE
SAE
SAE
SAE
SAE
SAE
SAE
SAE
SAE
SAE
SAE
SAE
SAE
SAE
SAE
SAE
SAE
SAE
SAE
SAE
SAE
SAE
SAE
SAE
SAE
SAE
SAE
SAE
SAE
SAE
SAE
SAE
SAE
SAE
SAE
SAE
SAE
SAE
SAE
SAE
SAE
SAE
SAE
SAE
SAE
SAE
SAE
SAE
SAE
SAE
SAE
SAE
SAE
SAE
SAE
SAE
SAE
SAE
SAE
SAE
SAE
SAE
SAE
SAE
SAE
SAE
SAE
SAE
SAE
SAE
SAE
SAE
SAE
SAE
SAE
SAE
SAE
SAE
SAE
SAE
SAE
SAE
SAE
SAE
SAE
SAE
SAE
SAE
SAE
SAE
SAE
SAE
SAE
SAE
SAE
SAE
SAE
SAE
SAE
SAE
SAE
SAE
SAE
SAE
SAE
SAE
SAE
SAE
SAE
SAE
SAE
SAE
SAE
SAE
SAE
SAE
SAE
SAE
SAE
SAE
SAE
SAE
SAE
SAE
SAE
SAE
SAE
SAE
SAE
SAE
SAE
SAE
SAE
SAE
SAE
SAE
SAE
SAE
SAE
SAE
SAE
SAE
SAE
SAE
SAE
SAE
SAE
SAE
SAE
SAE
SAE
SAE
SAE
SAE
SAE
SAE
SAE
SAE
SAE
SAE
SAE
SAE
SAE
SAE
SAE
SAE
SAE
SAE
Heartbeat CPU 6 instructions: 50000002 cycles: 19854374 heartbeat IPC: 2.46774 cumulative IPC: 2.51834 (Simulation time: 0 hr 39 min 21 sec) 
 Total Blocks : 196608 Invalid Blocks : 852
SAE
Heartbeat CPU 2 instructions: 50000002 cycles: 19854683 heartbeat IPC: 2.46771 cumulative IPC: 2.5183 (Simulation time: 0 hr 39 min 21 sec) 
 Total Blocks : 196608 Invalid Blocks : 853
Heartbeat CPU 4 instructions: 50000002 cycles: 19854683 heartbeat IPC: 2.4677 cumulative IPC: 2.5183 (Simulation time: 0 hr 39 min 21 sec) 
 Total Blocks : 196608 Invalid Blocks : 853
Heartbeat CPU 5 instructions: 50000002 cycles: 19854695 heartbeat IPC: 2.46773 cumulative IPC: 2.5183 (Simulation time: 0 hr 39 min 21 sec) 
 Total Blocks : 196608 Invalid Blocks : 853
Heartbeat CPU 0 instructions: 50000002 cycles: 19854710 heartbeat IPC: 2.46766 cumulative IPC: 2.51829 (Simulation time: 0 hr 39 min 21 sec) 
 Total Blocks : 196608 Invalid Blocks : 853
Heartbeat CPU 7 instructions: 50000002 cycles: 19854723 heartbeat IPC: 2.46772 cumulative IPC: 2.51829 (Simulation time: 0 hr 39 min 21 sec) 
 Total Blocks : 196608 Invalid Blocks : 853
Heartbeat CPU 1 instructions: 50000002 cycles: 19855378 heartbeat IPC: 2.46759 cumulative IPC: 2.51821 (Simulation time: 0 hr 39 min 21 sec) 
 Total Blocks : 196608 Invalid Blocks : 853
Heartbeat CPU 3 instructions: 50000002 cycles: 19855508 heartbeat IPC: 2.46758 cumulative IPC: 2.51819 (Simulation time: 0 hr 39 min 21 sec) 
 Total Blocks : 196608 Invalid Blocks : 853

Warmup complete CPU 0 instructions: 50001603 cycles: 19855508 (Simulation time: 0 hr 39 min 21 sec) 
Warmup complete CPU 1 instructions: 50000316 cycles: 19855508 (Simulation time: 0 hr 39 min 21 sec) 
Warmup complete CPU 2 instructions: 50001658 cycles: 19855508 (Simulation time: 0 hr 39 min 21 sec) 
Warmup complete CPU 3 instructions: 50000002 cycles: 19855508 (Simulation time: 0 hr 39 min 21 sec) 
Warmup complete CPU 4 instructions: 50001654 cycles: 19855507 (Simulation time: 0 hr 39 min 21 sec) 
Warmup complete CPU 5 instructions: 50001638 cycles: 19855507 (Simulation time: 0 hr 39 min 21 sec) 
Warmup complete CPU 6 instructions: 50002377 cycles: 19855507 (Simulation time: 0 hr 39 min 21 sec) 
Warmup complete CPU 7 instructions: 50001602 cycles: 19855507 (Simulation time: 0 hr 39 min 21 sec) 

SAE
SAE
SAE
SAE
SAE
SAE
SAE
SAE
SAE
SAE
SAE
SAE
SAE
SAE
SAE
SAE
SAE
SAE
SAE
SAE
SAE
SAE
SAE
SAE
SAE
SAE
SAE
SAE
SAE
SAE
SAE
SAE
SAE
SAE
SAE
SAE
SAE
SAE
SAE
SAE
SAE
SAE
SAE
SAE
SAE
SAE
SAE
SAE
SAE
SAE
SAE
SAE
SAE
SAE
SAE
SAE
SAE
SAE
SAE
SAE
SAE
SAE
SAE
SAE
SAE
SAE
SAE
SAE
SAE
SAE
SAE
SAE
SAE
SAE
SAE
SAE
SAE
SAE
SAE
SAE
SAE
SAE
SAE
SAE
SAE
SAE
SAE
SAE
SAE
SAE
SAE
SAE
SAE
SAE
SAE
SAE
SAE
SAE
SAE
SAE
SAE
SAE
SAE
SAE
SAE
SAE
SAE
SAE
SAE
SAE
SAE
SAE
SAE
SAE
SAE
SAE
SAE
SAE
SAE
SAE
SAE
SAE
SAE
SAE
SAE
SAE
SAE
SAE
SAE
SAE
SAE
SAE
SAE
SAE
SAE
SAE
SAE
SAE
SAE
SAE
SAE
SAE
SAE
SAE
SAE
SAE
SAE
SAE
SAE
SAE
SAE
SAE
SAE
SAE
SAE
SAE
SAE
SAE
SAE
SAE
SAE
SAE
SAE
SAE
SAE
SAE
SAE
SAE
SAE
SAE
SAE
SAE
SAE
SAE
SAE
SAE
SAE
SAE
SAE
SAE
SAE
SAE
SAE
SAE
SAE
SAE
SAE
SAE
SAE
SAE
SAE
SAE
SAE
SAE
SAE
SAE
SAE
SAE
SAE
SAE
SAE
SAE
SAE
SAE
SAE
SAE
SAE
SAE
SAE
SAE
SAE
SAE
SAE
SAE
SAE
SAE
SAE
SAE
SAE
SAE
SAE
SAE
SAE
SAE
SAE
SAE
SAE
SAE
SAE
SAE
SAE
SAE
SAE
SAE
SAE
SAE
SAE
SAE
SAE
SAE
SAE
SAE
SAE
SAE
SAE
SAE
SAE
SAE
SAE
SAE
SAE
SAE
SAE
SAE
SAE
SAE
SAE
SAE
SAE
SAE
SAE
SAE
SAE
SAE
SAE
SAE
SAE
SAE
SAE
SAE
SAE
SAE
SAE
SAE
SAE
SAE
SAE
SAE
SAE
SAE
SAE
SAE
SAE
SAE
SAE
SAE
SAE
SAE
SAE
SAE
SAE
SAE
SAE
SAE
SAE
SAE
SAE
SAE
SAE
SAE
SAE
SAE
SAE
SAE
SAE
SAE
SAE
SAE
SAE
SAE
SAE
SAE
SAE
SAE
SAE
SAE
SAE
SAE
SAE
SAE
SAE
SAE
SAE
SAE
SAE
SAE
SAE
SAE
SAE
SAE
SAE
SAE
SAE
SAE
SAE
SAE
SAE
SAE
SAE
SAE
SAE
SAE
SAE
SAE
SAE
SAE
SAE
SAE
SAE
SAE
SAE
SAE
SAE
SAE
SAE
SAE
SAE
SAE
SAE
SAE
SAE
SAE
SAE
SAE
SAE
SAE
SAE
SAE
SAE
SAE
SAE
SAE
SAE
SAE
SAE
SAE
SAE
SAE
SAE
SAE
SAE
SAE
SAE
SAE
SAE
SAE
SAE
SAE
SAE
SAE
SAE
SAE
SAE
SAE
SAE
SAE
SAE
SAE
SAE
SAE
SAE
SAE
SAE
SAE
SAE
SAE
SAE
SAE
SAE
SAE
SAE
SAE
SAE
SAE
SAE
SAE
SAE
SAE
SAE
SAE
SAE
SAE
SAE
SAE
SAE
SAE
SAE
SAE
SAE
SAE
SAE
SAE
SAE
SAE
SAE
SAE
SAE
SAE
SAE
SAE
SAE
SAE
SAE
SAE
SAE
SAE
SAE
SAE
SAE
SAE
SAE
SAE
SAE
SAE
SAE
SAE
SAE
SAE
SAE
SAE
SAE
SAE
SAE
SAE
SAE
SAE
SAE
SAE
SAE
SAE
SAE
SAE
SAE
SAE
SAE
SAE
SAE
SAE
SAE
SAE
SAE
SAE
SAE
SAE
SAE
SAE
SAE
SAE
SAE
SAE
SAE
SAE
SAE
SAE
SAE
SAE
SAE
SAE
SAE
SAE
SAE
SAE
SAE
SAE
SAE
SAE
SAE
SAE
SAE
SAE
SAE
SAE
SAE
SAE
SAE
SAE
SAE
SAE
SAE
SAE
SAE
SAE
SAE
SAE
SAE
SAE
SAE
SAE
SAE
SAE
SAE
SAE
SAE
SAE
SAE
SAE
SAE
SAE
SAE
SAE
SAE
SAE
SAE
SAE
SAE
SAE
SAE
SAE
SAE
SAE
SAE
SAE
SAE
SAE
SAE
SAE
SAE
SAE
SAE
SAE
SAE
SAE
SAE
SAE
SAE
SAE
SAE
SAE
SAE
SAE
SAE
SAE
SAE
SAE
SAE
SAE
SAE
SAE
SAE
SAE
SAE
SAE
SAE
SAE
SAE
SAE
SAE
SAE
SAE
SAE
SAE
SAE
SAE
SAE
SAE
SAE
SAE
SAE
SAE
SAE
SAE
SAE
SAE
SAE
SAE
SAE
SAE
SAE
SAE
SAE
SAE
SAE
SAE
SAE
SAE
SAE
SAE
SAE
SAE
SAE
SAE
SAE
SAE
SAE
SAE
SAE
SAE
SAE
SAE
SAE
SAE
SAE
SAE
SAE
SAE
SAE
SAE
SAE
SAE
SAE
SAE
SAE
SAE
SAE
SAE
SAE
SAE
SAE
SAE
SAE
SAE
SAE
SAE
SAE
SAE
SAE
SAE
SAE
SAE
SAE
SAE
SAE
SAE
SAE
SAE
SAE
SAE
SAE
SAE
SAE
SAE
SAE
SAE
SAE
SAE
SAE
SAE
SAE
SAE
SAE
SAE
SAE
SAE
SAE
SAE
SAE
SAE
SAE
SAE
SAE
SAE
SAE
SAE
SAE
SAE
SAE
SAE
SAE
SAE
SAE
SAE
SAE
SAE
SAE
SAE
SAE
SAE
SAE
SAE
SAE
SAE
SAE
SAE
SAE
SAE
SAE
SAE
SAE
SAE
SAE
SAE
SAE
SAE
SAE
SAE
SAE
SAE
SAE
SAE
SAE
SAE
SAE
SAE
SAE
SAE
SAE
SAE
SAE
SAE
SAE
SAE
SAE
SAE
SAE
SAE
SAE
SAE
SAE
SAE
SAE
SAE
SAE
SAE
SAE
SAE
SAE
SAE
SAE
SAE
SAE
SAE
SAE
SAE
SAE
SAE
SAE
SAE
SAE
SAE
SAE
SAE
SAE
SAE
SAE
SAE
SAE
SAE
SAE
SAE
SAE
SAE
SAE
SAE
SAE
SAE
SAE
SAE
SAE
SAE
SAE
SAE
SAE
SAE
SAE
SAE
SAE
SAE
SAE
SAE
SAE
SAE
SAE
SAE
SAE
SAE
SAE
SAE
SAE
SAE
SAE
SAE
SAE
SAE
SAE
SAE
SAE
SAE
SAE
SAE
SAE
SAE
SAE
SAE
SAE
SAE
SAE
SAE
SAE
SAE
SAE
SAE
SAE
SAE
SAE
SAE
SAE
SAE
SAE
SAE
SAE
SAE
SAE
SAE
SAE
SAE
SAE
SAE
SAE
SAE
SAE
SAE
SAE
SAE
SAE
SAE
SAE
SAE
SAE
SAE
SAE
SAE
SAE
SAE
SAE
SAE
SAE
SAE
SAE
SAE
SAE
SAE
SAE
SAE
SAE
SAE
SAE
SAE
SAE
SAE
SAE
SAE
SAE
SAE
SAE
SAE
SAE
SAE
SAE
SAE
SAE
SAE
SAE
SAE
SAE
SAE
SAE
SAE
SAE
SAE
SAE
SAE
SAE
SAE
SAE
SAE
SAE
SAE
SAE
SAE
SAE
SAE
SAE
SAE
SAE
SAE
SAE
SAE
SAE
SAE
SAE
SAE
SAE
SAE
SAE
SAE
SAE
SAE
SAE
SAE
SAE
SAE
SAE
SAE
SAE
SAE
SAE
SAE
SAE
SAE
SAE
SAE
SAE
SAE
SAE
SAE
SAE
SAE
SAE
SAE
SAE
SAE
SAE
SAE
SAE
SAE
SAE
SAE
SAE
SAE
SAE
SAE
SAE
SAE
SAE
SAE
SAE
SAE
SAE
SAE
SAE
SAE
SAE
SAE
SAE
SAE
SAE
SAE
SAE
SAE
SAE
SAE
SAE
SAE
SAE
SAE
SAE
SAE
SAE
SAE
SAE
SAE
SAE
SAE
SAE
SAE
SAE
SAE
SAE
SAE
SAE
SAE
SAE
SAE
SAE
SAE
SAE
SAE
SAE
SAE
SAE
SAE
SAE
SAE
SAE
SAE
SAE
SAE
SAE
SAE
SAE
SAE
SAE
SAE
SAE
SAE
SAE
SAE
SAE
SAE
SAE
SAE
SAE
SAE
SAE
SAE
SAE
SAE
SAE
SAE
SAE
SAE
SAE
SAE
SAE
SAE
SAE
SAE
SAE
SAE
SAE
SAE
SAE
SAE
SAE
SAE
SAE
SAE
SAE
SAE
SAE
SAE
SAE
SAE
SAE
SAE
SAE
SAE
SAE
SAE
SAE
SAE
SAE
SAE
SAE
SAE
SAE
SAE
SAE
SAE
SAE
SAE
SAE
SAE
SAE
SAE
SAE
SAE
SAE
SAE
SAE
SAE
SAE
SAE
SAE
SAE
SAE
SAE
SAE
SAE
SAE
SAE
SAE
SAE
SAE
SAE
SAE
SAE
SAE
SAE
SAE
SAE
SAE
SAE
SAE
SAE
SAE
SAE
SAE
SAE
SAE
SAE
SAE
SAE
SAE
SAE
SAE
Heartbeat CPU 2 instructions: 60000003 cycles: 27172284 heartbeat IPC: 1.36657 cumulative IPC: 1.3665 (Simulation time: 0 hr 45 min 39 sec) 
 Total Blocks : 196608 Invalid Blocks : 921
SAE
SAE
Heartbeat CPU 5 instructions: 60000003 cycles: 27177109 heartbeat IPC: 1.36567 cumulative IPC: 1.3656 (Simulation time: 0 hr 45 min 40 sec) 
 Total Blocks : 196608 Invalid Blocks : 922
Heartbeat CPU 4 instructions: 60000003 cycles: 27178077 heartbeat IPC: 1.36549 cumulative IPC: 1.36542 (Simulation time: 0 hr 45 min 40 sec) 
 Total Blocks : 196608 Invalid Blocks : 922
SAE
SAE
SAE
SAE
SAE
SAE
Heartbeat CPU 6 instructions: 60000003 cycles: 27207360 heartbeat IPC: 1.35999 cumulative IPC: 1.35988 (Simulation time: 0 hr 45 min 41 sec) 
 Total Blocks : 196608 Invalid Blocks : 924
Heartbeat CPU 3 instructions: 60000003 cycles: 27209289 heartbeat IPC: 1.35984 cumulative IPC: 1.35984 (Simulation time: 0 hr 45 min 41 sec) 
 Total Blocks : 196608 Invalid Blocks : 924
Heartbeat CPU 0 instructions: 60000003 cycles: 27209296 heartbeat IPC: 1.3597 cumulative IPC: 1.35963 (Simulation time: 0 hr 45 min 41 sec) 
 Total Blocks : 196608 Invalid Blocks : 924
Heartbeat CPU 7 instructions: 60000003 cycles: 27211123 heartbeat IPC: 1.35936 cumulative IPC: 1.35929 (Simulation time: 0 hr 45 min 41 sec) 
 Total Blocks : 196608 Invalid Blocks : 924
SAE
Heartbeat CPU 1 instructions: 60000003 cycles: 27216891 heartbeat IPC: 1.35842 cumulative IPC: 1.3584 (Simulation time: 0 hr 45 min 42 sec) 
 Total Blocks : 196608 Invalid Blocks : 923
SAE
SAE
SAE
SAE
SAE
SAE
SAE
SAE
SAE
SAE
SAE
SAE
SAE
SAE
SAE
SAE
SAE
SAE
SAE
SAE
SAE
SAE
SAE
SAE
SAE
SAE
SAE
SAE
SAE
SAE
SAE
SAE
SAE
SAE
SAE
SAE
SAE
SAE
SAE
SAE
SAE
SAE
SAE
SAE
SAE
SAE
SAE
SAE
SAE
SAE
SAE
SAE
SAE
SAE
SAE
SAE
SAE
SAE
SAE
SAE
SAE
SAE
SAE
SAE
SAE
SAE
SAE
SAE
SAE
SAE
SAE
SAE
SAE
SAE
SAE
SAE
SAE
SAE
SAE
SAE
SAE
SAE
SAE
SAE
SAE
SAE
SAE
SAE
SAE
SAE
SAE
SAE
SAE
SAE
SAE
SAE
SAE
SAE
SAE
SAE
SAE
SAE
SAE
SAE
SAE
SAE
SAE
SAE
SAE
SAE
SAE
SAE
SAE
SAE
SAE
SAE
SAE
SAE
SAE
SAE
SAE
SAE
SAE
SAE
SAE
SAE
SAE
SAE
SAE
SAE
SAE
SAE
SAE
SAE
SAE
SAE
SAE
SAE
SAE
SAE
SAE
SAE
SAE
SAE
SAE
SAE
SAE
SAE
SAE
SAE
SAE
SAE
SAE
SAE
SAE
SAE
SAE
SAE
SAE
SAE
SAE
SAE
SAE
SAE
SAE
SAE
SAE
SAE
SAE
SAE
SAE
SAE
SAE
SAE
SAE
SAE
SAE
SAE
SAE
SAE
SAE
SAE
SAE
SAE
SAE
SAE
SAE
SAE
SAE
SAE
SAE
SAE
SAE
SAE
SAE
SAE
SAE
SAE
SAE
SAE
SAE
SAE
SAE
SAE
SAE
SAE
SAE
SAE
SAE
SAE
SAE
SAE
SAE
SAE
SAE
SAE
SAE
SAE
SAE
SAE
SAE
SAE
SAE
SAE
SAE
SAE
SAE
SAE
SAE
SAE
SAE
SAE
SAE
SAE
SAE
SAE
SAE
SAE
SAE
SAE
SAE
SAE
SAE
SAE
SAE
SAE
SAE
SAE
SAE
SAE
SAE
SAE
SAE
SAE
SAE
SAE
SAE
SAE
SAE
SAE
SAE
SAE
SAE
SAE
SAE
SAE
SAE
SAE
SAE
SAE
SAE
SAE
SAE
SAE
SAE
SAE
SAE
SAE
SAE
SAE
SAE
SAE
SAE
SAE
SAE
SAE
SAE
SAE
SAE
SAE
SAE
SAE
SAE
SAE
SAE
SAE
SAE
SAE
SAE
SAE
SAE
SAE
SAE
SAE
SAE
SAE
SAE
SAE
SAE
SAE
SAE
SAE
SAE
SAE
SAE
SAE
SAE
SAE
SAE
SAE
SAE
SAE
SAE
SAE
SAE
SAE
SAE
SAE
SAE
SAE
SAE
SAE
SAE
SAE
SAE
SAE
SAE
SAE
SAE
SAE
SAE
SAE
SAE
SAE
SAE
SAE
SAE
SAE
SAE
SAE
SAE
SAE
SAE
SAE
SAE
SAE
SAE
SAE
SAE
SAE
SAE
SAE
SAE
SAE
SAE
SAE
SAE
SAE
SAE
SAE
SAE
SAE
SAE
SAE
SAE
SAE
SAE
SAE
SAE
SAE
SAE
SAE
SAE
SAE
SAE
SAE
SAE
SAE
SAE
SAE
SAE
SAE
SAE
SAE
SAE
SAE
SAE
SAE
SAE
SAE
SAE
SAE
SAE
SAE
SAE
SAE
SAE
SAE
SAE
SAE
SAE
SAE
SAE
SAE
SAE
SAE
SAE
SAE
SAE
SAE
SAE
SAE
SAE
SAE
SAE
SAE
SAE
SAE
SAE
SAE
SAE
SAE
SAE
SAE
SAE
SAE
SAE
SAE
SAE
SAE
SAE
SAE
SAE
SAE
SAE
SAE
SAE
SAE
SAE
SAE
SAE
SAE
SAE
SAE
SAE
SAE
SAE
SAE
SAE
SAE
SAE
SAE
SAE
SAE
SAE
SAE
SAE
SAE
SAE
SAE
SAE
SAE
SAE
SAE
SAE
SAE
SAE
SAE
SAE
SAE
SAE
SAE
SAE
SAE
SAE
SAE
SAE
SAE
SAE
SAE
SAE
SAE
SAE
SAE
SAE
SAE
SAE
SAE
SAE
SAE
SAE
SAE
SAE
SAE
SAE
SAE
SAE
SAE
SAE
SAE
SAE
SAE
SAE
SAE
SAE
SAE
SAE
SAE
SAE
SAE
SAE
SAE
SAE
SAE
SAE
SAE
SAE
SAE
SAE
SAE
SAE
SAE
SAE
SAE
SAE
SAE
SAE
SAE
SAE
SAE
SAE
SAE
SAE
SAE
SAE
SAE
SAE
SAE
SAE
SAE
SAE
SAE
SAE
SAE
SAE
SAE
SAE
SAE
SAE
SAE
SAE
SAE
SAE
SAE
SAE
SAE
SAE
SAE
SAE
SAE
SAE
SAE
SAE
SAE
SAE
SAE
SAE
SAE
SAE
SAE
SAE
SAE
SAE
SAE
SAE
SAE
SAE
SAE
SAE
SAE
SAE
SAE
SAE
SAE
SAE
SAE
SAE
SAE
SAE
SAE
SAE
SAE
SAE
SAE
SAE
SAE
SAE
SAE
SAE
SAE
SAE
SAE
SAE
SAE
SAE
SAE
SAE
SAE
SAE
SAE
SAE
SAE
SAE
SAE
SAE
SAE
SAE
SAE
SAE
SAE
SAE
SAE
SAE
SAE
SAE
SAE
SAE
SAE
SAE
SAE
SAE
SAE
SAE
SAE
SAE
SAE
SAE
SAE
SAE
SAE
SAE
SAE
SAE
SAE
SAE
SAE
SAE
SAE
SAE
SAE
SAE
SAE
SAE
SAE
SAE
SAE
SAE
SAE
SAE
SAE
SAE
SAE
SAE
SAE
SAE
SAE
SAE
SAE
SAE
SAE
SAE
SAE
SAE
SAE
SAE
SAE
SAE
SAE
SAE
SAE
SAE
SAE
SAE
SAE
SAE
SAE
SAE
SAE
SAE
SAE
SAE
SAE
SAE
SAE
SAE
SAE
SAE
SAE
SAE
SAE
SAE
SAE
SAE
SAE
SAE
SAE
SAE
SAE
SAE
SAE
SAE
SAE
SAE
SAE
SAE
SAE
SAE
SAE
SAE
SAE
SAE
SAE
SAE
SAE
SAE
SAE
SAE
SAE
SAE
SAE
SAE
SAE
SAE
SAE
SAE
SAE
SAE
SAE
SAE
SAE
SAE
SAE
SAE
SAE
SAE
SAE
SAE
SAE
SAE
SAE
SAE
SAE
SAE
SAE
SAE
SAE
SAE
SAE
SAE
SAE
SAE
SAE
SAE
SAE
SAE
SAE
SAE
SAE
SAE
SAE
SAE
SAE
SAE
SAE
SAE
SAE
SAE
SAE
SAE
SAE
SAE
SAE
SAE
SAE
SAE
SAE
SAE
SAE
SAE
SAE
SAE
SAE
SAE
SAE
SAE
SAE
SAE
SAE
SAE
SAE
SAE
SAE
SAE
SAE
SAE
SAE
SAE
SAE
SAE
SAE
SAE
SAE
SAE
SAE
SAE
SAE
SAE
SAE
SAE
SAE
SAE
SAE
SAE
SAE
SAE
SAE
SAE
SAE
SAE
SAE
SAE
SAE
SAE
SAE
SAE
SAE
SAE
SAE
SAE
SAE
SAE
SAE
SAE
SAE
SAE
SAE
SAE
SAE
SAE
SAE
SAE
SAE
SAE
SAE
SAE
SAE
SAE
SAE
SAE
SAE
SAE
SAE
SAE
SAE
SAE
SAE
SAE
SAE
SAE
SAE
SAE
SAE
SAE
SAE
SAE
SAE
SAE
SAE
SAE
SAE
SAE
SAE
SAE
SAE
SAE
SAE
SAE
SAE
SAE
SAE
SAE
SAE
SAE
SAE
SAE
SAE
SAE
SAE
SAE
SAE
SAE
SAE
SAE
SAE
SAE
SAE
SAE
SAE
SAE
SAE
SAE
SAE
SAE
SAE
SAE
SAE
SAE
SAE
SAE
SAE
SAE
SAE
SAE
SAE
SAE
SAE
SAE
SAE
SAE
SAE
SAE
SAE
SAE
SAE
SAE
SAE
SAE
SAE
SAE
SAE
SAE
SAE
SAE
SAE
SAE
SAE
SAE
SAE
SAE
SAE
SAE
SAE
SAE
SAE
SAE
SAE
SAE
SAE
SAE
SAE
SAE
SAE
SAE
SAE
SAE
SAE
SAE
SAE
SAE
SAE
SAE
SAE
SAE
Heartbeat CPU 2 instructions: 70000002 cycles: 34429993 heartbeat IPC: 1.37785 cumulative IPC: 1.37215 (Simulation time: 0 hr 51 min 54 sec) 
 Total Blocks : 196608 Invalid Blocks : 816
Heartbeat CPU 4 instructions: 70000002 cycles: 34434178 heartbeat IPC: 1.37815 cumulative IPC: 1.37175 (Simulation time: 0 hr 51 min 54 sec) 
 Total Blocks : 196608 Invalid Blocks : 816
Heartbeat CPU 5 instructions: 70000002 cycles: 34434966 heartbeat IPC: 1.37782 cumulative IPC: 1.37168 (Simulation time: 0 hr 51 min 54 sec) 
 Total Blocks : 196608 Invalid Blocks : 816
SAE
SAE
SAE
SAE
SAE
SAE
SAE
SAE
SAE
SAE
SAE
SAE
SAE
SAE
SAE
SAE
SAE
SAE
Heartbeat CPU 3 instructions: 70000002 cycles: 34488446 heartbeat IPC: 1.37379 cumulative IPC: 1.36678 (Simulation time: 0 hr 51 min 58 sec) 
 Total Blocks : 196608 Invalid Blocks : 819
Heartbeat CPU 6 instructions: 70000002 cycles: 34488653 heartbeat IPC: 1.37338 cumulative IPC: 1.3666 (Simulation time: 0 hr 51 min 58 sec) 
 Total Blocks : 196608 Invalid Blocks : 819
Heartbeat CPU 7 instructions: 70000002 cycles: 34492691 heartbeat IPC: 1.37333 cumulative IPC: 1.36627 (Simulation time: 0 hr 51 min 58 sec) 
 Total Blocks : 196608 Invalid Blocks : 819
Heartbeat CPU 1 instructions: 70000002 cycles: 34494620 heartbeat IPC: 1.37405 cumulative IPC: 1.36618 (Simulation time: 0 hr 51 min 58 sec) 
 Total Blocks : 196608 Invalid Blocks : 818
Heartbeat CPU 0 instructions: 70000002 cycles: 34495973 heartbeat IPC: 1.37237 cumulative IPC: 1.36597 (Simulation time: 0 hr 51 min 58 sec) 
 Total Blocks : 196608 Invalid Blocks : 818
SAE
SAE
SAE
SAE
SAE
SAE
SAE
SAE
SAE
SAE
SAE
SAE
SAE
SAE
SAE
SAE
SAE
SAE
SAE
SAE
SAE
SAE
SAE
SAE
SAE
SAE
SAE
SAE
SAE
SAE
SAE
SAE
SAE
SAE
SAE
SAE
SAE
SAE
SAE
SAE
SAE
SAE
SAE
SAE
SAE
SAE
SAE
SAE
SAE
SAE
SAE
SAE
SAE
SAE
SAE
SAE
SAE
SAE
SAE
SAE
SAE
SAE
SAE
SAE
SAE
SAE
SAE
SAE
SAE
SAE
SAE
SAE
SAE
SAE
SAE
SAE
SAE
SAE
SAE
SAE
SAE
SAE
SAE
SAE
SAE
SAE
SAE
SAE
SAE
SAE
SAE
SAE
SAE
SAE
SAE
SAE
SAE
SAE
SAE
SAE
SAE
SAE
SAE
SAE
SAE
SAE
SAE
SAE
SAE
SAE
SAE
SAE
SAE
SAE
SAE
SAE
SAE
SAE
SAE
SAE
SAE
SAE
SAE
SAE
SAE
SAE
SAE
SAE
SAE
SAE
SAE
SAE
SAE
SAE
SAE
SAE
SAE
SAE
SAE
SAE
SAE
SAE
SAE
SAE
SAE
SAE
SAE
SAE
SAE
SAE
SAE
SAE
SAE
SAE
SAE
SAE
SAE
SAE
SAE
SAE
SAE
SAE
SAE
SAE
SAE
SAE
SAE
SAE
SAE
SAE
SAE
SAE
SAE
SAE
SAE
SAE
SAE
SAE
SAE
SAE
SAE
SAE
SAE
SAE
SAE
SAE
SAE
SAE
SAE
SAE
SAE
SAE
SAE
SAE
SAE
SAE
SAE
SAE
SAE
SAE
SAE
SAE
SAE
SAE
SAE
SAE
SAE
SAE
SAE
SAE
SAE
SAE
SAE
SAE
SAE
SAE
SAE
SAE
SAE
SAE
SAE
SAE
SAE
SAE
SAE
SAE
SAE
SAE
SAE
SAE
SAE
SAE
SAE
SAE
SAE
SAE
SAE
SAE
SAE
SAE
SAE
SAE
SAE
SAE
SAE
SAE
SAE
SAE
SAE
SAE
SAE
SAE
SAE
SAE
SAE
SAE
SAE
SAE
SAE
SAE
SAE
SAE
SAE
SAE
SAE
SAE
SAE
SAE
SAE
SAE
SAE
SAE
SAE
SAE
SAE
SAE
SAE
SAE
SAE
SAE
SAE
SAE
SAE
SAE
SAE
SAE
SAE
SAE
SAE
SAE
SAE
SAE
SAE
SAE
SAE
SAE
SAE
SAE
SAE
SAE
SAE
SAE
SAE
SAE
SAE
SAE
SAE
SAE
SAE
SAE
SAE
SAE
SAE
SAE
SAE
SAE
SAE
SAE
SAE
SAE
SAE
SAE
SAE
SAE
SAE
SAE
SAE
SAE
SAE
SAE
SAE
SAE
SAE
SAE
SAE
SAE
SAE
SAE
SAE
SAE
SAE
SAE
SAE
SAE
SAE
SAE
SAE
SAE
SAE
SAE
SAE
SAE
SAE
SAE
SAE
SAE
SAE
SAE
SAE
SAE
SAE
SAE
SAE
SAE
SAE
SAE
SAE
SAE
SAE
SAE
SAE
SAE
SAE
SAE
SAE
SAE
SAE
SAE
SAE
SAE
SAE
SAE
SAE
SAE
SAE
SAE
SAE
SAE
SAE
SAE
SAE
SAE
SAE
SAE
SAE
SAE
SAE
SAE
SAE
SAE
SAE
SAE
SAE
SAE
SAE
SAE
SAE
SAE
SAE
SAE
SAE
SAE
SAE
SAE
SAE
SAE
SAE
SAE
SAE
SAE
SAE
SAE
SAE
SAE
SAE
SAE
SAE
SAE
SAE
SAE
SAE
SAE
SAE
SAE
SAE
SAE
SAE
SAE
SAE
SAE
SAE
SAE
SAE
SAE
SAE
SAE
SAE
SAE
SAE
SAE
SAE
SAE
SAE
SAE
SAE
SAE
SAE
SAE
SAE
SAE
SAE
SAE
SAE
SAE
SAE
SAE
SAE
SAE
SAE
SAE
SAE
SAE
SAE
SAE
SAE
SAE
SAE
SAE
SAE
SAE
SAE
SAE
SAE
SAE
SAE
SAE
SAE
SAE
SAE
SAE
SAE
SAE
SAE
SAE
SAE
SAE
SAE
SAE
SAE
SAE
SAE
SAE
SAE
SAE
SAE
SAE
SAE
SAE
SAE
SAE
SAE
SAE
SAE
SAE
SAE
SAE
SAE
SAE
SAE
SAE
SAE
SAE
SAE
SAE
SAE
SAE
SAE
SAE
SAE
SAE
SAE
SAE
SAE
SAE
SAE
SAE
SAE
SAE
SAE
SAE
SAE
SAE
SAE
SAE
SAE
SAE
SAE
SAE
SAE
SAE
SAE
SAE
SAE
SAE
SAE
SAE
SAE
SAE
SAE
SAE
SAE
SAE
SAE
SAE
SAE
SAE
SAE
SAE
SAE
SAE
SAE
SAE
SAE
SAE
SAE
SAE
SAE
SAE
SAE
SAE
SAE
SAE
SAE
SAE
SAE
SAE
SAE
SAE
SAE
SAE
SAE
SAE
SAE
SAE
SAE
SAE
SAE
SAE
SAE
SAE
SAE
SAE
SAE
SAE
SAE
SAE
SAE
SAE
SAE
SAE
SAE
SAE
SAE
SAE
SAE
SAE
SAE
SAE
SAE
SAE
SAE
SAE
SAE
SAE
SAE
SAE
SAE
SAE
SAE
SAE
SAE
SAE
SAE
SAE
SAE
SAE
SAE
SAE
SAE
SAE
SAE
SAE
SAE
SAE
SAE
SAE
SAE
SAE
SAE
SAE
SAE
SAE
SAE
SAE
SAE
SAE
SAE
SAE
SAE
SAE
SAE
SAE
SAE
SAE
SAE
SAE
SAE
SAE
SAE
SAE
SAE
SAE
SAE
SAE
SAE
SAE
SAE
SAE
SAE
SAE
SAE
SAE
SAE
SAE
SAE
SAE
SAE
SAE
SAE
SAE
SAE
SAE
SAE
SAE
SAE
SAE
SAE
SAE
SAE
SAE
SAE
SAE
SAE
SAE
SAE
SAE
SAE
SAE
SAE
SAE
SAE
SAE
SAE
SAE
SAE
SAE
SAE
SAE
SAE
SAE
SAE
SAE
SAE
SAE
SAE
SAE
SAE
SAE
SAE
SAE
SAE
SAE
SAE
SAE
SAE
SAE
SAE
SAE
SAE
SAE
SAE
SAE
SAE
SAE
SAE
SAE
SAE
SAE
SAE
SAE
SAE
SAE
SAE
SAE
SAE
SAE
SAE
SAE
SAE
SAE
SAE
SAE
SAE
SAE
SAE
SAE
SAE
SAE
SAE
SAE
SAE
SAE
SAE
SAE
SAE
SAE
SAE
SAE
SAE
SAE
SAE
SAE
SAE
SAE
SAE
SAE
SAE
SAE
SAE
SAE
SAE
SAE
SAE
SAE
SAE
SAE
SAE
SAE
SAE
SAE
SAE
SAE
SAE
SAE
SAE
SAE
SAE
SAE
SAE
SAE
SAE
SAE
SAE
SAE
SAE
SAE
SAE
SAE
SAE
SAE
SAE
SAE
SAE
SAE
SAE
SAE
SAE
SAE
SAE
SAE
SAE
SAE
SAE
SAE
SAE
SAE
SAE
SAE
SAE
SAE
SAE
SAE
SAE
SAE
SAE
SAE
SAE
SAE
SAE
SAE
SAE
SAE
SAE
SAE
SAE
SAE
SAE
SAE
SAE
SAE
SAE
SAE
SAE
SAE
SAE
SAE
SAE
SAE
SAE
SAE
SAE
SAE
SAE
SAE
SAE
SAE
SAE
SAE
SAE
SAE
SAE
SAE
SAE
SAE
SAE
SAE
SAE
SAE
SAE
SAE
SAE
SAE
SAE
SAE
SAE
SAE
SAE
SAE
SAE
SAE
SAE
SAE
SAE
SAE
SAE
SAE
SAE
SAE
SAE
SAE
SAE
SAE
SAE
SAE
SAE
SAE
SAE
SAE
SAE
SAE
SAE
SAE
SAE
SAE
SAE
SAE
SAE
SAE
SAE
SAE
SAE
SAE
SAE
SAE
SAE
SAE
SAE
SAE
SAE
SAE
SAE
SAE
SAE
SAE
SAE
SAE
SAE
SAE
SAE
SAE
SAE
SAE
SAE
SAE
SAE
SAE
SAE
SAE
SAE
SAE
SAE
SAE
SAE
SAE
SAE
SAE
SAE
SAE
SAE
SAE
SAE
SAE
SAE
SAE
SAE
SAE
SAE
SAE
SAE
SAE
SAE
SAE
SAE
SAE
SAE
SAE
SAE
SAE
SAE
SAE
SAE
SAE
SAE
SAE
SAE
SAE
SAE
SAE
SAE
SAE
SAE
SAE
SAE
SAE
SAE
SAE
SAE
SAE
SAE
SAE
SAE
SAE
SAE
SAE
SAE
SAE
SAE
SAE
SAE
SAE
SAE
SAE
SAE
SAE
SAE
SAE
SAE
SAE
SAE
SAE
SAE
SAE
SAE
SAE
SAE
SAE
SAE
SAE
SAE
SAE
SAE
SAE
SAE
SAE
SAE
SAE
Heartbeat CPU 2 instructions: 80000003 cycles: 41700779 heartbeat IPC: 1.37537 cumulative IPC: 1.37322 (Simulation time: 0 hr 58 min 10 sec) 
 Total Blocks : 196608 Invalid Blocks : 897
Heartbeat CPU 4 instructions: 80000003 cycles: 41701431 heartbeat IPC: 1.37604 cumulative IPC: 1.37318 (Simulation time: 0 hr 58 min 10 sec) 
 Total Blocks : 196608 Invalid Blocks : 895
SAE
Heartbeat CPU 5 instructions: 80000003 cycles: 41702202 heartbeat IPC: 1.37604 cumulative IPC: 1.37313 (Simulation time: 0 hr 58 min 10 sec) 
 Total Blocks : 196608 Invalid Blocks : 896
SAE
SAE
SAE
SAE
SAE
SAE
SAE
SAE
SAE
SAE
SAE
SAE
SAE
SAE
SAE
SAE
SAE
SAE
SAE
SAE
SAE
SAE
SAE
SAE
SAE
SAE
SAE
SAE
SAE
SAE
SAE
SAE
Heartbeat CPU 1 instructions: 80000003 cycles: 41783474 heartbeat IPC: 1.37196 cumulative IPC: 1.3681 (Simulation time: 0 hr 58 min 16 sec) 
 Total Blocks : 196608 Invalid Blocks : 890
Heartbeat CPU 3 instructions: 80000003 cycles: 41784436 heartbeat IPC: 1.37062 cumulative IPC: 1.36806 (Simulation time: 0 hr 58 min 16 sec) 
 Total Blocks : 196608 Invalid Blocks : 889
Heartbeat CPU 7 instructions: 80000003 cycles: 41784528 heartbeat IPC: 1.3714 cumulative IPC: 1.36798 (Simulation time: 0 hr 58 min 16 sec) 
 Total Blocks : 196608 Invalid Blocks : 889
SAE
SAE
Heartbeat CPU 6 instructions: 80000003 cycles: 41788359 heartbeat IPC: 1.36992 cumulative IPC: 1.3677 (Simulation time: 0 hr 58 min 16 sec) 
 Total Blocks : 196608 Invalid Blocks : 888
Heartbeat CPU 0 instructions: 80000003 cycles: 41789080 heartbeat IPC: 1.37116 cumulative IPC: 1.36769 (Simulation time: 0 hr 58 min 16 sec) 
 Total Blocks : 196608 Invalid Blocks : 887
SAE
SAE
SAE
SAE
SAE
SAE
SAE
SAE
SAE
SAE
SAE
SAE
SAE
SAE
SAE
SAE
SAE
SAE
SAE
SAE
SAE
SAE
SAE
SAE
SAE
SAE
SAE
SAE
SAE
SAE
SAE
SAE
SAE
SAE
SAE
SAE
SAE
SAE
SAE
SAE
SAE
SAE
SAE
SAE
SAE
SAE
SAE
SAE
SAE
SAE
SAE
SAE
SAE
SAE
SAE
SAE
SAE
SAE
SAE
SAE
SAE
SAE
SAE
SAE
SAE
SAE
SAE
SAE
SAE
SAE
SAE
SAE
SAE
SAE
SAE
SAE
SAE
SAE
SAE
SAE
SAE
SAE
SAE
SAE
SAE
SAE
SAE
SAE
SAE
SAE
SAE
SAE
SAE
SAE
SAE
SAE
SAE
SAE
SAE
SAE
SAE
SAE
SAE
SAE
SAE
SAE
SAE
SAE
SAE
SAE
SAE
SAE
SAE
SAE
SAE
SAE
SAE
SAE
SAE
SAE
SAE
SAE
SAE
SAE
SAE
SAE
SAE
SAE
SAE
SAE
SAE
SAE
SAE
SAE
SAE
SAE
SAE
SAE
SAE
SAE
SAE
SAE
SAE
SAE
SAE
SAE
SAE
SAE
SAE
SAE
SAE
SAE
SAE
SAE
SAE
SAE
SAE
SAE
SAE
SAE
SAE
SAE
SAE
SAE
SAE
SAE
SAE
SAE
SAE
SAE
SAE
SAE
SAE
SAE
SAE
SAE
SAE
SAE
SAE
SAE
SAE
SAE
SAE
SAE
SAE
SAE
SAE
SAE
SAE
SAE
SAE
SAE
SAE
SAE
SAE
SAE
SAE
SAE
SAE
SAE
SAE
SAE
SAE
SAE
SAE
SAE
SAE
SAE
SAE
SAE
SAE
SAE
SAE
SAE
SAE
SAE
SAE
SAE
SAE
SAE
SAE
SAE
SAE
SAE
SAE
SAE
SAE
SAE
SAE
SAE
SAE
SAE
SAE
SAE
SAE
SAE
SAE
SAE
SAE
SAE
SAE
SAE
SAE
SAE
SAE
SAE
SAE
SAE
SAE
SAE
SAE
SAE
SAE
SAE
SAE
SAE
SAE
SAE
SAE
SAE
SAE
SAE
SAE
SAE
SAE
SAE
SAE
SAE
SAE
SAE
SAE
SAE
SAE
SAE
SAE
SAE
SAE
SAE
SAE
SAE
SAE
SAE
SAE
SAE
SAE
SAE
SAE
SAE
SAE
SAE
SAE
SAE
SAE
SAE
SAE
SAE
SAE
SAE
SAE
SAE
SAE
SAE
SAE
SAE
SAE
SAE
SAE
SAE
SAE
SAE
SAE
SAE
SAE
SAE
SAE
SAE
SAE
SAE
SAE
SAE
SAE
SAE
SAE
SAE
SAE
SAE
SAE
SAE
SAE
SAE
SAE
SAE
SAE
SAE
SAE
SAE
SAE
SAE
SAE
SAE
SAE
SAE
SAE
SAE
SAE
SAE
SAE
SAE
SAE
SAE
SAE
SAE
SAE
SAE
SAE
SAE
SAE
SAE
SAE
SAE
SAE
SAE
SAE
SAE
SAE
SAE
SAE
SAE
SAE
SAE
SAE
SAE
SAE
SAE
SAE
SAE
SAE
SAE
SAE
SAE
SAE
SAE
SAE
SAE
SAE
SAE
SAE
SAE
SAE
SAE
SAE
SAE
SAE
SAE
SAE
SAE
SAE
SAE
SAE
SAE
SAE
SAE
SAE
SAE
SAE
SAE
SAE
SAE
SAE
SAE
SAE
SAE
SAE
SAE
SAE
SAE
SAE
SAE
SAE
SAE
SAE
SAE
SAE
SAE
SAE
SAE
SAE
SAE
SAE
SAE
SAE
SAE
SAE
SAE
SAE
SAE
SAE
SAE
SAE
SAE
SAE
SAE
SAE
SAE
SAE
SAE
SAE
SAE
SAE
SAE
SAE
SAE
SAE
SAE
SAE
SAE
SAE
SAE
SAE
SAE
SAE
SAE
SAE
SAE
SAE
SAE
SAE
SAE
SAE
SAE
SAE
SAE
SAE
SAE
SAE
SAE
SAE
SAE
SAE
SAE
SAE
SAE
SAE
SAE
SAE
SAE
SAE
SAE
SAE
SAE
SAE
SAE
SAE
SAE
SAE
SAE
SAE
SAE
SAE
SAE
SAE
SAE
SAE
SAE
SAE
SAE
SAE
SAE
SAE
SAE
SAE
SAE
SAE
SAE
SAE
SAE
SAE
SAE
SAE
SAE
SAE
SAE
SAE
SAE
SAE
SAE
SAE
SAE
SAE
SAE
SAE
SAE
SAE
SAE
SAE
SAE
SAE
SAE
SAE
SAE
SAE
SAE
SAE
SAE
SAE
SAE
SAE
SAE
SAE
SAE
SAE
SAE
SAE
SAE
SAE
SAE
SAE
SAE
SAE
SAE
SAE
SAE
SAE
SAE
SAE
SAE
SAE
SAE
SAE
SAE
SAE
SAE
SAE
SAE
SAE
SAE
SAE
SAE
SAE
SAE
SAE
SAE
SAE
SAE
SAE
SAE
SAE
SAE
SAE
SAE
SAE
SAE
SAE
SAE
SAE
SAE
SAE
SAE
SAE
SAE
SAE
SAE
SAE
SAE
SAE
SAE
SAE
SAE
SAE
SAE
SAE
SAE
SAE
SAE
SAE
SAE
SAE
SAE
SAE
SAE
SAE
SAE
SAE
SAE
SAE
SAE
SAE
SAE
SAE
SAE
SAE
SAE
SAE
SAE
SAE
SAE
SAE
SAE
SAE
SAE
SAE
SAE
SAE
SAE
SAE
SAE
SAE
SAE
SAE
SAE
SAE
SAE
SAE
SAE
SAE
SAE
SAE
SAE
SAE
SAE
SAE
SAE
SAE
SAE
SAE
SAE
SAE
SAE
SAE
SAE
SAE
SAE
SAE
SAE
SAE
SAE
SAE
SAE
SAE
SAE
SAE
SAE
SAE
SAE
SAE
SAE
SAE
SAE
SAE
SAE
SAE
SAE
SAE
SAE
SAE
SAE
SAE
SAE
SAE
SAE
SAE
SAE
SAE
SAE
SAE
SAE
SAE
SAE
SAE
SAE
SAE
SAE
SAE
SAE
SAE
SAE
SAE
SAE
SAE
SAE
SAE
SAE
SAE
SAE
SAE
SAE
SAE
SAE
SAE
SAE
SAE
SAE
SAE
SAE
SAE
SAE
SAE
SAE
SAE
SAE
SAE
SAE
SAE
SAE
SAE
SAE
SAE
SAE
SAE
SAE
SAE
SAE
SAE
SAE
SAE
SAE
SAE
SAE
SAE
SAE
SAE
SAE
SAE
SAE
SAE
SAE
SAE
SAE
SAE
SAE
SAE
SAE
SAE
SAE
SAE
SAE
SAE
SAE
SAE
SAE
SAE
SAE
SAE
SAE
SAE
SAE
SAE
SAE
SAE
SAE
SAE
SAE
SAE
SAE
SAE
SAE
SAE
SAE
SAE
SAE
SAE
SAE
SAE
SAE
SAE
SAE
SAE
SAE
SAE
SAE
SAE
SAE
SAE
SAE
SAE
SAE
SAE
SAE
SAE
SAE
SAE
SAE
SAE
SAE
SAE
SAE
SAE
SAE
SAE
SAE
SAE
SAE
SAE
SAE
SAE
SAE
SAE
SAE
SAE
SAE
SAE
SAE
SAE
SAE
SAE
SAE
SAE
SAE
SAE
SAE
SAE
SAE
SAE
SAE
SAE
SAE
SAE
SAE
SAE
SAE
SAE
SAE
SAE
SAE
SAE
SAE
SAE
SAE
SAE
SAE
SAE
SAE
SAE
SAE
SAE
SAE
SAE
SAE
SAE
SAE
SAE
SAE
SAE
SAE
SAE
SAE
SAE
SAE
SAE
SAE
SAE
SAE
SAE
SAE
SAE
SAE
SAE
SAE
SAE
SAE
SAE
SAE
SAE
SAE
SAE
SAE
SAE
SAE
SAE
SAE
SAE
SAE
SAE
SAE
SAE
SAE
SAE
SAE
SAE
SAE
SAE
SAE
SAE
SAE
SAE
SAE
SAE
SAE
SAE
SAE
SAE
SAE
SAE
SAE
SAE
SAE
SAE
SAE
SAE
SAE
SAE
SAE
SAE
SAE
SAE
SAE
SAE
SAE
SAE
SAE
SAE
SAE
SAE
SAE
SAE
SAE
SAE
SAE
SAE
SAE
SAE
SAE
SAE
SAE
SAE
SAE
SAE
SAE
SAE
SAE
SAE
SAE
SAE
SAE
SAE
SAE
SAE
SAE
SAE
SAE
SAE
SAE
SAE
SAE
SAE
SAE
SAE
SAE
SAE
SAE
SAE
SAE
SAE
SAE
SAE
SAE
SAE
SAE
SAE
SAE
SAE
SAE
SAE
SAE
SAE
SAE
SAE
SAE
SAE
SAE
SAE
SAE
SAE
SAE
SAE
SAE
SAE
SAE
SAE
SAE
SAE
SAE
SAE
SAE
SAE
SAE
SAE
SAE
SAE
SAE
SAE
SAE
SAE
SAE
SAE
SAE
SAE
SAE
SAE
SAE
SAE
SAE
SAE
SAE
SAE
SAE
SAE
SAE
SAE
SAE
SAE
SAE
SAE
SAE
SAE
SAE
SAE
SAE
SAE
SAE
SAE
SAE
SAE
SAE
SAE
SAE
SAE
SAE
SAE
SAE
SAE
SAE
SAE
SAE
SAE
SAE
SAE
SAE
SAE
SAE
SAE
SAE
SAE
SAE
SAE
SAE
SAE
SAE
SAE
SAE
SAE
SAE
SAE
SAE
SAE
SAE
SAE
SAE
SAE
SAE
SAE
SAE
SAE
SAE
SAE
SAE
SAE
SAE
SAE
SAE
SAE
SAE
SAE
SAE
SAE
SAE
SAE
SAE
SAE
SAE
SAE
SAE
SAE
SAE
SAE
SAE
SAE
SAE
SAE
SAE
SAE
SAE
SAE
SAE
SAE
SAE
SAE
SAE
SAE
SAE
SAE
SAE
SAE
SAE
SAE
SAE
SAE
SAE
SAE
SAE
SAE
SAE
SAE
SAE
SAE
SAE
SAE
SAE
SAE
SAE
SAE
SAE
SAE
SAE
SAE
SAE
SAE
SAE
SAE
SAE
SAE
SAE
SAE
SAE
SAE
SAE
SAE
SAE
SAE
SAE
SAE
SAE
SAE
SAE
SAE
SAE
SAE
SAE
SAE
SAE
SAE
SAE
SAE
SAE
SAE
SAE
SAE
SAE
SAE
SAE
SAE
SAE
SAE
SAE
SAE
SAE
SAE
SAE
SAE
SAE
SAE
SAE
SAE
SAE
SAE
SAE
SAE
SAE
SAE
SAE
SAE
SAE
SAE
SAE
SAE
SAE
SAE
SAE
SAE
SAE
SAE
SAE
SAE
SAE
SAE
SAE
SAE
SAE
SAE
SAE
SAE
SAE
SAE
SAE
SAE
SAE
SAE
SAE
SAE
SAE
SAE
SAE
SAE
SAE
SAE
SAE
SAE
SAE
SAE
SAE
SAE
SAE
SAE
SAE
SAE
SAE
SAE
SAE
SAE
SAE
SAE
SAE
SAE
SAE
SAE
SAE
SAE
SAE
SAE
SAE
SAE
SAE
SAE
SAE
SAE
SAE
SAE
SAE
SAE
SAE
SAE
SAE
SAE
SAE
SAE
SAE
SAE
SAE
SAE
SAE
SAE
SAE
SAE
SAE
SAE
SAE
SAE
SAE
SAE
SAE
SAE
SAE
SAE
SAE
SAE
SAE
SAE
SAE
SAE
SAE
SAE
SAE
SAE
SAE
SAE
SAE
SAE
SAE
SAE
SAE
SAE
SAE
SAE
SAE
SAE
SAE
SAE
SAE
SAE
SAE
SAE
SAE
SAE
SAE
SAE
SAE
SAE
SAE
SAE
SAE
SAE
SAE
SAE
SAE
SAE
SAE
SAE
SAE
SAE
SAE
SAE
SAE
SAE
SAE
SAE
SAE
SAE
SAE
SAE
SAE
SAE
SAE
SAE
SAE
SAE
SAE
SAE
SAE
SAE
SAE
SAE
SAE
SAE
SAE
SAE
SAE
SAE
SAE
SAE
SAE
SAE
SAE
SAE
SAE
SAE
SAE
SAE
SAE
SAE
SAE
SAE
SAE
SAE
SAE
SAE
SAE
SAE
SAE
SAE
SAE
SAE
SAE
SAE
SAE
SAE
SAE
SAE
SAE
SAE
SAE
SAE
SAE
SAE
SAE
SAE
SAE
SAE
SAE
SAE
SAE
SAE
SAE
SAE
SAE
SAE
SAE
SAE
SAE
SAE
SAE
SAE
SAE
SAE
SAE
SAE
SAE
SAE
SAE
SAE
SAE
SAE
SAE
SAE
SAE
SAE
SAE
SAE
SAE
SAE
SAE
SAE
SAE
SAE
SAE
SAE
SAE
SAE
SAE
SAE
SAE
SAE
SAE
SAE
SAE
SAE
SAE
SAE
SAE
SAE
SAE
SAE
SAE
SAE
SAE
SAE
SAE
SAE
SAE
SAE
SAE
SAE
SAE
SAE
SAE
SAE
SAE
SAE
SAE
SAE
SAE
SAE
SAE
SAE
SAE
SAE
SAE
SAE
SAE
SAE
SAE
SAE
SAE
SAE
SAE
SAE
SAE
SAE
SAE
SAE
SAE
SAE
SAE
SAE
SAE
SAE
SAE
SAE
SAE
SAE
SAE
SAE
SAE
SAE
SAE
SAE
SAE
SAE
SAE
SAE
SAE
SAE
SAE
SAE
SAE
SAE
SAE
SAE
SAE
SAE
SAE
SAE
SAE
SAE
SAE
SAE
SAE
SAE
SAE
SAE
SAE
SAE
SAE
SAE
SAE
SAE
SAE
SAE
SAE
SAE
SAE
SAE
SAE
SAE
SAE
SAE
SAE
SAE
SAE
SAE
SAE
SAE
SAE
SAE
SAE
SAE
SAE
SAE
SAE
SAE
SAE
SAE
SAE
SAE
SAE
SAE
SAE
SAE
SAE
SAE
SAE
SAE
SAE
SAE
SAE
SAE
SAE
SAE
SAE
SAE
SAE
SAE
SAE
SAE
SAE
SAE
SAE
SAE
SAE
SAE
SAE
SAE
SAE
SAE
SAE
SAE
SAE
SAE
SAE
SAE
SAE
SAE
SAE
SAE
SAE
SAE
SAE
SAE
SAE
SAE
SAE
SAE
SAE
SAE
SAE
SAE
SAE
SAE
SAE
SAE
SAE
SAE
SAE
SAE
SAE
SAE
SAE
SAE
SAE
SAE
SAE
SAE
SAE
SAE
SAE
SAE
SAE
SAE
SAE
SAE
SAE
SAE
SAE
SAE
SAE
SAE
SAE
SAE
SAE
SAE
SAE
SAE
SAE
SAE
SAE
SAE
SAE
SAE
SAE
SAE
SAE
SAE
SAE
SAE
SAE
SAE
SAE
SAE
SAE
SAE
SAE
SAE
SAE
SAE
SAE
SAE
SAE
SAE
SAE
SAE
SAE
SAE
SAE
SAE
SAE
SAE
SAE
SAE
SAE
SAE
SAE
SAE
SAE
SAE
SAE
SAE
SAE
SAE
SAE
SAE
SAE
SAE
SAE
SAE
SAE
SAE
SAE
SAE
SAE
SAE
SAE
SAE
SAE
SAE
SAE
SAE
SAE
SAE
SAE
SAE
SAE
SAE
SAE
SAE
SAE
SAE
SAE
SAE
SAE
SAE
SAE
SAE
SAE
SAE
SAE
SAE
SAE
SAE
SAE
SAE
SAE
SAE
SAE
SAE
SAE
SAE
SAE
SAE
SAE
SAE
SAE
SAE
SAE
SAE
SAE
SAE
SAE
SAE
SAE
SAE
SAE
SAE
SAE
SAE
SAE
SAE
SAE
SAE
SAE
SAE
SAE
SAE
SAE
SAE
SAE
SAE
SAE
SAE
SAE
SAE
SAE
SAE
SAE
SAE
SAE
SAE
SAE
SAE
SAE
SAE
SAE
SAE
SAE
SAE
SAE
SAE
SAE
SAE
SAE
SAE
SAE
SAE
SAE
SAE
SAE
SAE
SAE
SAE
SAE
SAE
SAE
SAE
SAE
SAE
SAE
SAE
SAE
SAE
SAE
SAE
SAE
SAE
SAE
SAE
SAE
SAE
SAE
SAE
SAE
SAE
SAE
SAE
SAE
SAE
SAE
SAE
SAE
SAE
SAE
SAE
SAE
SAE
SAE
SAE
SAE
SAE
SAE
SAE
SAE
SAE
SAE
SAE
SAE
SAE
SAE
SAE
SAE
SAE
SAE
SAE
SAE
SAE
SAE
SAE
SAE
SAE
SAE
SAE
SAE
SAE
SAE
SAE
SAE
SAE
SAE
SAE
SAE
SAE
SAE
SAE
SAE
SAE
SAE
SAE
SAE
SAE
SAE
SAE
SAE
SAE
SAE
SAE
SAE
SAE
SAE
SAE
SAE
SAE
SAE
SAE
SAE
SAE
SAE
SAE
SAE
SAE
SAE
SAE
SAE
SAE
SAE
SAE
SAE
SAE
SAE
SAE
SAE
SAE
SAE
SAE
SAE
SAE
SAE
SAE
SAE
SAE
SAE
SAE
SAE
SAE
SAE
SAE
SAE
SAE
SAE
SAE
SAE
SAE
SAE
SAE
SAE
SAE
SAE
SAE
SAE
SAE
SAE
SAE
SAE
SAE
SAE
SAE
SAE
SAE
SAE
SAE
SAE
SAE
SAE
SAE
SAE
SAE
SAE
SAE
SAE
SAE
SAE
SAE
SAE
SAE
SAE
SAE
SAE
SAE
SAE
SAE
SAE
SAE
SAE
SAE
SAE
SAE
SAE
SAE
SAE
SAE
SAE
SAE
SAE
SAE
SAE
SAE
SAE
SAE
SAE
SAE
SAE
SAE
SAE
SAE
SAE
SAE
SAE
SAE
SAE
SAE
SAE
SAE
SAE
SAE
SAE
SAE
SAE
SAE
SAE
SAE
SAE
SAE
SAE
SAE
SAE
SAE
SAE
SAE
SAE
SAE
SAE
SAE
SAE
SAE
SAE
SAE
SAE
SAE
SAE
SAE
SAE
SAE
SAE
SAE
SAE
SAE
SAE
SAE
SAE
SAE
SAE
SAE
SAE
SAE
SAE
SAE
SAE
SAE
SAE
SAE
SAE
SAE
SAE
SAE
SAE
SAE
SAE
SAE
SAE
SAE
SAE
SAE
SAE
SAE
SAE
SAE
SAE
SAE
SAE
SAE
SAE
SAE
SAE
SAE
SAE
SAE
SAE
SAE
SAE
SAE
SAE
SAE
SAE
SAE
SAE
SAE
SAE
SAE
SAE
SAE
SAE
SAE
SAE
SAE
SAE
SAE
SAE
SAE
SAE
SAE
SAE
SAE
SAE
SAE
SAE
SAE
SAE
SAE
SAE
SAE
SAE
SAE
SAE
SAE
SAE
SAE
SAE
SAE
SAE
SAE
SAE
SAE
SAE
SAE
SAE
SAE
SAE
SAE
SAE
SAE
SAE
SAE
SAE
SAE
SAE
SAE
SAE
SAE
SAE
SAE
SAE
SAE
SAE
SAE
SAE
SAE
SAE
SAE
SAE
SAE
SAE
SAE
SAE
SAE
SAE
SAE
SAE
SAE
SAE
SAE
SAE
SAE
SAE
SAE
SAE
SAE
SAE
SAE
SAE
SAE
SAE
SAE
SAE
SAE
SAE
SAE
SAE
SAE
SAE
SAE
SAE
SAE
SAE
SAE
SAE
SAE
SAE
SAE
SAE
SAE
SAE
SAE
SAE
SAE
SAE
SAE
SAE
SAE
SAE
SAE
SAE
SAE
SAE
SAE
SAE
SAE
SAE
SAE
SAE
SAE
SAE
SAE
SAE
SAE
SAE
SAE
SAE
SAE
SAE
SAE
SAE
SAE
SAE
SAE
SAE
SAE
SAE
SAE
SAE
SAE
SAE
SAE
SAE
SAE
SAE
SAE
SAE
SAE
SAE
SAE
SAE
SAE
SAE
SAE
SAE
SAE
SAE
SAE
SAE
SAE
SAE
SAE
SAE
SAE
SAE
SAE
SAE
SAE
SAE
SAE
SAE
SAE
SAE
SAE
SAE
SAE
SAE
SAE
SAE
SAE
SAE
SAE
SAE
SAE
SAE
SAE
SAE
SAE
SAE
SAE
SAE
SAE
SAE
SAE
SAE
SAE
SAE
SAE
SAE
SAE
SAE
SAE
SAE
SAE
SAE
SAE
SAE
SAE
SAE
SAE
SAE
SAE
SAE
SAE
SAE
SAE
SAE
SAE
SAE
SAE
SAE
SAE
SAE
SAE
SAE
SAE
SAE
SAE
SAE
SAE
SAE
SAE
SAE
SAE
SAE
SAE
SAE
SAE
SAE
SAE
SAE
SAE
SAE
SAE
SAE
SAE
SAE
SAE
SAE
SAE
SAE
SAE
SAE
SAE
SAE
SAE
SAE
SAE
SAE
SAE
SAE
SAE
SAE
SAE
SAE
SAE
SAE
SAE
SAE
SAE
SAE
SAE
SAE
SAE
SAE
SAE
SAE
SAE
SAE
SAE
SAE
SAE
SAE
SAE
SAE
SAE
SAE
SAE
SAE
SAE
SAE
SAE
SAE
SAE
SAE
SAE
SAE
SAE
SAE
SAE
SAE
SAE
SAE
SAE
SAE
SAE
SAE
SAE
SAE
SAE
SAE
SAE
SAE
SAE
SAE
SAE
SAE
SAE
SAE
SAE
SAE
SAE
SAE
SAE
SAE
SAE
SAE
SAE
SAE
SAE
SAE
SAE
SAE
SAE
SAE
SAE
SAE
SAE
SAE
SAE
SAE
SAE
SAE
SAE
SAE
SAE
SAE
SAE
SAE
SAE
SAE
SAE
SAE
SAE
SAE
SAE
SAE
SAE
SAE
SAE
SAE
SAE
SAE
SAE
SAE
SAE
SAE
SAE
SAE
SAE
SAE
SAE
SAE
SAE
SAE
SAE
SAE
SAE
SAE
SAE
SAE
SAE
SAE
SAE
SAE
SAE
SAE
SAE
SAE
SAE
SAE
SAE
SAE
SAE
SAE
SAE
SAE
SAE
SAE
SAE
SAE
SAE
SAE
SAE
SAE
SAE
SAE
SAE
SAE
SAE
SAE
SAE
SAE
SAE
SAE
SAE
SAE
SAE
SAE
SAE
SAE
SAE
SAE
SAE
SAE
SAE
SAE
SAE
SAE
SAE
SAE
SAE
SAE
SAE
SAE
SAE
SAE
SAE
SAE
SAE
SAE
SAE
SAE
SAE
SAE
SAE
SAE
SAE
SAE
SAE
SAE
SAE
SAE
SAE
SAE
SAE
SAE
SAE
SAE
SAE
SAE
SAE
SAE
SAE
SAE
SAE
SAE
SAE
SAE
SAE
SAE
SAE
SAE
SAE
SAE
SAE
SAE
SAE
SAE
SAE
SAE
SAE
SAE
SAE
SAE
SAE
SAE
SAE
SAE
SAE
SAE
SAE
SAE
SAE
SAE
SAE
SAE
SAE
SAE
SAE
SAE
SAE
SAE
SAE
SAE
SAE
SAE
SAE
SAE
SAE
SAE
SAE
SAE
SAE
SAE
SAE
SAE
SAE
SAE
SAE
SAE
SAE
SAE
SAE
SAE
SAE
SAE
SAE
SAE
SAE
SAE
SAE
SAE
SAE
SAE
SAE
SAE
SAE
SAE
SAE
SAE
SAE
SAE
SAE
SAE
SAE
SAE
SAE
SAE
SAE
SAE
SAE
SAE
SAE
SAE
SAE
SAE
SAE
SAE
SAE
SAE
SAE
SAE
SAE
SAE
SAE
SAE
SAE
SAE
SAE
SAE
SAE
SAE
SAE
SAE
SAE
SAE
SAE
SAE
SAE
SAE
SAE
SAE
SAE
SAE
SAE
SAE
SAE
SAE
SAE
SAE
SAE
SAE
SAE
SAE
SAE
SAE
SAE
SAE
SAE
SAE
SAE
SAE
SAE
SAE
SAE
SAE
SAE
SAE
SAE
SAE
SAE
SAE
SAE
SAE
SAE
SAE
SAE
SAE
SAE
SAE
SAE
SAE
SAE
SAE
SAE
SAE
SAE
SAE
SAE
SAE
SAE
SAE
SAE
SAE
SAE
SAE
SAE
SAE
SAE
SAE
SAE
SAE
SAE
SAE
SAE
SAE
SAE
SAE
SAE
SAE
SAE
SAE
SAE
SAE
SAE
SAE
SAE
SAE
SAE
SAE
SAE
SAE
SAE
SAE
SAE
SAE
SAE
SAE
SAE
SAE
SAE
SAE
SAE
SAE
SAE
SAE
SAE
SAE
SAE
SAE
SAE
SAE
SAE
SAE
SAE
SAE
SAE
SAE
SAE
SAE
SAE
SAE
SAE
SAE
SAE
SAE
SAE
SAE
SAE
SAE
SAE
SAE
SAE
SAE
SAE
SAE
SAE
SAE
SAE
SAE
SAE
SAE
SAE
SAE
SAE
SAE
SAE
SAE
SAE
SAE
SAE
SAE
SAE
SAE
SAE
SAE
SAE
SAE
SAE
SAE
SAE
SAE
SAE
SAE
SAE
SAE
SAE
SAE
SAE
SAE
SAE
SAE
SAE
SAE
SAE
SAE
SAE
SAE
SAE
SAE
SAE
SAE
SAE
SAE
SAE
SAE
SAE
SAE
SAE
SAE
SAE
SAE
SAE
SAE
SAE
SAE
SAE
SAE
SAE
SAE
SAE
SAE
SAE
SAE
SAE
SAE
SAE
SAE
SAE
SAE
SAE
SAE
SAE
SAE
SAE
SAE
SAE
SAE
SAE
SAE
SAE
SAE
SAE
SAE
SAE
SAE
SAE
SAE
SAE
SAE
SAE
SAE
SAE
SAE
SAE
SAE
SAE
SAE
SAE
SAE
SAE
SAE
SAE
SAE
SAE
SAE
SAE
SAE
SAE
SAE
SAE
SAE
SAE
SAE
SAE
SAE
SAE
SAE
SAE
SAE
SAE
SAE
SAE
SAE
SAE
SAE
SAE
SAE
SAE
SAE
SAE
SAE
SAE
SAE
SAE
SAE
SAE
SAE
SAE
SAE
SAE
SAE
SAE
SAE
SAE
SAE
SAE
SAE
SAE
SAE
SAE
SAE
SAE
SAE
SAE
SAE
SAE
SAE
SAE
SAE
SAE
SAE
SAE
SAE
SAE
SAE
SAE
SAE
SAE
SAE
SAE
SAE
SAE
SAE
SAE
SAE
SAE
SAE
SAE
SAE
SAE
SAE
SAE
SAE
SAE
SAE
SAE
SAE
SAE
SAE
SAE
SAE
SAE
SAE
SAE
SAE
SAE
SAE
SAE
SAE
SAE
SAE
SAE
SAE
SAE
SAE
SAE
SAE
SAE
SAE
SAE
SAE
SAE
SAE
SAE
SAE
SAE
SAE
SAE
SAE
SAE
SAE
SAE
SAE
SAE
SAE
SAE
SAE
SAE
SAE
SAE
SAE
SAE
SAE
SAE
SAE
SAE
SAE
SAE
SAE
SAE
SAE
SAE
SAE
SAE
SAE
SAE
SAE
SAE
SAE
SAE
SAE
SAE
SAE
SAE
SAE
SAE
SAE
SAE
SAE
SAE
SAE
SAE
SAE
SAE
SAE
SAE
SAE
SAE
SAE
SAE
SAE
SAE
SAE
SAE
SAE
SAE
SAE
SAE
SAE
SAE
SAE
SAE
SAE
SAE
SAE
SAE
SAE
SAE
SAE
SAE
SAE
SAE
SAE
SAE
SAE
SAE
SAE
SAE
SAE
SAE
SAE
SAE
SAE
SAE
SAE
SAE
SAE
SAE
SAE
SAE
SAE
SAE
SAE
SAE
SAE
SAE
SAE
SAE
SAE
SAE
SAE
SAE
SAE
SAE
SAE
SAE
SAE
SAE
SAE
SAE
SAE
SAE
SAE
SAE
SAE
SAE
SAE
SAE
SAE
SAE
SAE
SAE
SAE
SAE
SAE
SAE
SAE
SAE
SAE
SAE
SAE
SAE
SAE
SAE
SAE
SAE
SAE
SAE
SAE
SAE
SAE
SAE
SAE
SAE
SAE
SAE
SAE
SAE
SAE
SAE
SAE
SAE
SAE
SAE
SAE
SAE
SAE
SAE
SAE
SAE
SAE
SAE
SAE
SAE
SAE
SAE
SAE
SAE
SAE
SAE
SAE
SAE
SAE
SAE
SAE
SAE
SAE
SAE
SAE
SAE
SAE
SAE
SAE
SAE
SAE
SAE
SAE
SAE
SAE
SAE
SAE
SAE
SAE
SAE
SAE
SAE
SAE
SAE
SAE
SAE
SAE
SAE
SAE
SAE
SAE
SAE
SAE
SAE
SAE
SAE
SAE
SAE
SAE
SAE
SAE
SAE
SAE
SAE
SAE
SAE
SAE
SAE
SAE
SAE
SAE
SAE
SAE
SAE
SAE
SAE
SAE
SAE
SAE
SAE
SAE
SAE
SAE
SAE
SAE
SAE
SAE
SAE
SAE
SAE
SAE
SAE
SAE
SAE
SAE
SAE
SAE
SAE
SAE
SAE
SAE
SAE
SAE
SAE
SAE
SAE
SAE
SAE
SAE
SAE
SAE
SAE
SAE
SAE
SAE
SAE
SAE
SAE
SAE
SAE
SAE
SAE
SAE
SAE
SAE
SAE
SAE
SAE
SAE
SAE
SAE
SAE
SAE
SAE
SAE
SAE
SAE
SAE
SAE
SAE
SAE
SAE
SAE
SAE
SAE
SAE
SAE
SAE
SAE
SAE
SAE
SAE
SAE
SAE
SAE
SAE
SAE
SAE
SAE
SAE
SAE
SAE
SAE
SAE
SAE
SAE
SAE
SAE
SAE
SAE
SAE
SAE
SAE
SAE
SAE
SAE
SAE
SAE
SAE
SAE
SAE
SAE
SAE
SAE
SAE
SAE
SAE
SAE
SAE
SAE
SAE
SAE
SAE
SAE
SAE
SAE
SAE
SAE
SAE
SAE
SAE
SAE
SAE
SAE
SAE
SAE
SAE
SAE
SAE
SAE
SAE
SAE
SAE
SAE
SAE
SAE
SAE
SAE
SAE
SAE
SAE
SAE
SAE
SAE
SAE
SAE
SAE
SAE
SAE
SAE
SAE
SAE
SAE
SAE
SAE
SAE
SAE
SAE
SAE
SAE
SAE
SAE
SAE
SAE
SAE
SAE
SAE
SAE
SAE
SAE
SAE
SAE
SAE
SAE
SAE
SAE
SAE
SAE
SAE
SAE
SAE
SAE
SAE
SAE
SAE
SAE
SAE
SAE
SAE
SAE
SAE
SAE
SAE
SAE
SAE
SAE
SAE
SAE
SAE
SAE
SAE
SAE
SAE
SAE
SAE
SAE
SAE
SAE
SAE
SAE
SAE
SAE
SAE
SAE
SAE
SAE
SAE
SAE
SAE
SAE
SAE
SAE
SAE
SAE
SAE
SAE
SAE
SAE
SAE
SAE
SAE
SAE
SAE
SAE
SAE
SAE
SAE
SAE
SAE
SAE
SAE
SAE
SAE
SAE
SAE
SAE
SAE
SAE
SAE
SAE
SAE
SAE
SAE
SAE
SAE
SAE
SAE
SAE
SAE
SAE
SAE
SAE
SAE
SAE
SAE
SAE
SAE
SAE
SAE
SAE
SAE
SAE
SAE
SAE
SAE
SAE
SAE
SAE
SAE
SAE
SAE
SAE
SAE
SAE
SAE
SAE
SAE
SAE
SAE
SAE
SAE
SAE
SAE
SAE
SAE
SAE
SAE
SAE
SAE
SAE
SAE
SAE
SAE
SAE
SAE
SAE
SAE
SAE
SAE
SAE
SAE
SAE
SAE
SAE
SAE
SAE
SAE
SAE
SAE
SAE
SAE
SAE
SAE
SAE
SAE
SAE
SAE
SAE
SAE
SAE
SAE
SAE
SAE
SAE
SAE
SAE
SAE
SAE
SAE
SAE
SAE
SAE
SAE
SAE
SAE
SAE
SAE
SAE
SAE
SAE
SAE
SAE
SAE
SAE
SAE
SAE
SAE
SAE
SAE
SAE
SAE
SAE
SAE
SAE
SAE
SAE
SAE
SAE
SAE
SAE
SAE
SAE
SAE
SAE
SAE
SAE
SAE
SAE
SAE
SAE
SAE
SAE
SAE
SAE
SAE
SAE
SAE
SAE
SAE
SAE
SAE
SAE
SAE
SAE
SAE
SAE
SAE
SAE
SAE
SAE
SAE
SAE
SAE
SAE
SAE
SAE
SAE
SAE
SAE
SAE
SAE
SAE
SAE
SAE
SAE
SAE
SAE
SAE
SAE
SAE
SAE
SAE
SAE
SAE
SAE
SAE
SAE
SAE
SAE
SAE
SAE
SAE
SAE
SAE
SAE
SAE
SAE
SAE
SAE
SAE
SAE
SAE
SAE
SAE
SAE
SAE
SAE
SAE
SAE
SAE
SAE
SAE
SAE
SAE
SAE
SAE
SAE
SAE
SAE
SAE
SAE
SAE
SAE
SAE
SAE
SAE
SAE
SAE
SAE
SAE
SAE
SAE
SAE
SAE
SAE
SAE
SAE
SAE
SAE
SAE
SAE
SAE
SAE
SAE
SAE
SAE
SAE
SAE
SAE
SAE
SAE
SAE
SAE
SAE
SAE
SAE
SAE
SAE
SAE
SAE
SAE
SAE
SAE
SAE
SAE
SAE
SAE
SAE
SAE
SAE
SAE
SAE
SAE
SAE
SAE
SAE
SAE
SAE
SAE
SAE
SAE
SAE
SAE
SAE
SAE
SAE
SAE
SAE
SAE
SAE
SAE
SAE
SAE
SAE
SAE
SAE
SAE
SAE
SAE
SAE
SAE
SAE
SAE
SAE
SAE
SAE
SAE
SAE
SAE
SAE
SAE
SAE
SAE
SAE
SAE
SAE
SAE
SAE
SAE
SAE
SAE
SAE
SAE
SAE
SAE
SAE
SAE
SAE
SAE
SAE
SAE
SAE
SAE
SAE
SAE
SAE
SAE
SAE
SAE
SAE
SAE
SAE
SAE
SAE
SAE
SAE
SAE
SAE
SAE
SAE
SAE
SAE
SAE
SAE
SAE
SAE
SAE
SAE
SAE
SAE
SAE
SAE
SAE
SAE
SAE
SAE
SAE
SAE
SAE
SAE
SAE
SAE
SAE
SAE
SAE
SAE
SAE
SAE
SAE
SAE
SAE
SAE
SAE
SAE
SAE
SAE
SAE
SAE
SAE
SAE
SAE
SAE
SAE
SAE
SAE
SAE
SAE
SAE
SAE
SAE
SAE
SAE
SAE
SAE
SAE
SAE
SAE
SAE
SAE
SAE
SAE
SAE
SAE
SAE
SAE
SAE
SAE
SAE
SAE
SAE
SAE
SAE
SAE
SAE
SAE
SAE
SAE
SAE
SAE
SAE
SAE
SAE
SAE
SAE
SAE
SAE
SAE
SAE
SAE
SAE
SAE
SAE
SAE
SAE
SAE
SAE
SAE
SAE
SAE
SAE
SAE
SAE
SAE
SAE
SAE
SAE
SAE
SAE
SAE
SAE
SAE
SAE
SAE
SAE
SAE
SAE
SAE
SAE
SAE
SAE
SAE
SAE
SAE
SAE
SAE
SAE
SAE
SAE
SAE
SAE
SAE
SAE
SAE
SAE
SAE
SAE
SAE
SAE
SAE
SAE
SAE
SAE
SAE
SAE
SAE
SAE
SAE
SAE
SAE
SAE
SAE
SAE
SAE
SAE
SAE
SAE
SAE
SAE
SAE
SAE
SAE
SAE
SAE
SAE
SAE
SAE
SAE
SAE
SAE
SAE
SAE
SAE
SAE
SAE
SAE
SAE
SAE
SAE
SAE
SAE
SAE
SAE
SAE
SAE
SAE
SAE
SAE
SAE
SAE
SAE
SAE
SAE
SAE
SAE
SAE
SAE
SAE
SAE
SAE
SAE
SAE
SAE
SAE
SAE
SAE
SAE
SAE
SAE
SAE
SAE
SAE
SAE
SAE
SAE
SAE
SAE
SAE
SAE
SAE
SAE
SAE
SAE
SAE
SAE
SAE
SAE
SAE
SAE
SAE
SAE
SAE
SAE
SAE
SAE
SAE
SAE
SAE
SAE
SAE
SAE
SAE
SAE
SAE
SAE
SAE
SAE
SAE
SAE
SAE
SAE
SAE
SAE
SAE
SAE
SAE
SAE
SAE
SAE
SAE
SAE
SAE
SAE
SAE
SAE
SAE
SAE
SAE
SAE
SAE
SAE
SAE
SAE
SAE
SAE
SAE
SAE
SAE
SAE
SAE
SAE
SAE
SAE
SAE
SAE
SAE
SAE
SAE
SAE
SAE
SAE
SAE
SAE
SAE
SAE
SAE
SAE
SAE
SAE
SAE
SAE
SAE
SAE
SAE
SAE
SAE
SAE
SAE
SAE
SAE
SAE
SAE
SAE
SAE
SAE
SAE
SAE
SAE
SAE
SAE
SAE
SAE
SAE
SAE
SAE
SAE
SAE
SAE
SAE
SAE
SAE
SAE
SAE
SAE
SAE
SAE
SAE
SAE
SAE
SAE
SAE
SAE
SAE
SAE
SAE
SAE
SAE
SAE
SAE
SAE
SAE
SAE
SAE
SAE
SAE
SAE
SAE
SAE
SAE
SAE
SAE
SAE
SAE
SAE
SAE
SAE
SAE
SAE
SAE
SAE
SAE
SAE
SAE
SAE
SAE
SAE
SAE
SAE
SAE
SAE
SAE
SAE
SAE
SAE
SAE
SAE
SAE
SAE
SAE
SAE
SAE
SAE
SAE
SAE
SAE
SAE
SAE
SAE
SAE
SAE
SAE
SAE
SAE
SAE
SAE
SAE
SAE
SAE
SAE
SAE
SAE
SAE
SAE
SAE
SAE
SAE
SAE
SAE
SAE
SAE
SAE
SAE
SAE
SAE
SAE
SAE
SAE
SAE
SAE
SAE
SAE
SAE
SAE
SAE
SAE
SAE
SAE
SAE
SAE
SAE
SAE
SAE
SAE
SAE
SAE
SAE
SAE
SAE
SAE
SAE
SAE
SAE
SAE
SAE
SAE
SAE
SAE
SAE
SAE
SAE
SAE
SAE
SAE
SAE
SAE
SAE
SAE
SAE
SAE
SAE
SAE
SAE
SAE
SAE
SAE
SAE
SAE
SAE
SAE
SAE
SAE
SAE
SAE
SAE
SAE
SAE
SAE
SAE
SAE
SAE
SAE
SAE
SAE
SAE
SAE
SAE
SAE
SAE
SAE
SAE
SAE
SAE
SAE
SAE
SAE
SAE
SAE
SAE
SAE
SAE
SAE
SAE
SAE
SAE
SAE
SAE
SAE
SAE
SAE
SAE
SAE
SAE
SAE
SAE
SAE
SAE
SAE
SAE
SAE
SAE
SAE
SAE
SAE
SAE
SAE
SAE
SAE
SAE
SAE
SAE
SAE
SAE
SAE
SAE
SAE
SAE
SAE
SAE
SAE
SAE
SAE
SAE
SAE
SAE
SAE
SAE
SAE
SAE
SAE
SAE
SAE
SAE
SAE
SAE
SAE
SAE
SAE
SAE
SAE
SAE
SAE
SAE
SAE
SAE
SAE
SAE
SAE
SAE
SAE
SAE
SAE
SAE
SAE
SAE
SAE
SAE
SAE
SAE
SAE
SAE
SAE
SAE
SAE
SAE
SAE
SAE
SAE
SAE
SAE
SAE
SAE
SAE
SAE
SAE
SAE
SAE
SAE
SAE
SAE
SAE
SAE
SAE
SAE
SAE
SAE
SAE
SAE
SAE
SAE
SAE
SAE
SAE
SAE
SAE
SAE
SAE
SAE
SAE
SAE
SAE
SAE
SAE
SAE
SAE
SAE
SAE
SAE
SAE
SAE
SAE
SAE
SAE
SAE
SAE
SAE
SAE
SAE
SAE
SAE
SAE
SAE
SAE
SAE
SAE
SAE
SAE
SAE
SAE
SAE
SAE
SAE
SAE
SAE
SAE
SAE
SAE
SAE
SAE
SAE
SAE
SAE
SAE
SAE
SAE
SAE
SAE
SAE
SAE
SAE
SAE
SAE
SAE
SAE
SAE
SAE
SAE
SAE
SAE
SAE
SAE
SAE
SAE
SAE
SAE
SAE
SAE
SAE
SAE
SAE
SAE
SAE
SAE
SAE
SAE
SAE
SAE
SAE
SAE
SAE
SAE
SAE
SAE
SAE
SAE
SAE
SAE
SAE
SAE
SAE
SAE
SAE
SAE
SAE
SAE
SAE
SAE
SAE
SAE
SAE
SAE
SAE
SAE
SAE
SAE
SAE
SAE
SAE
SAE
SAE
SAE
SAE
SAE
SAE
SAE
SAE
SAE
SAE
SAE
SAE
SAE
SAE
SAE
SAE
SAE
SAE
SAE
SAE
SAE
SAE
SAE
SAE
SAE
SAE
SAE
SAE
SAE
SAE
SAE
SAE
SAE
SAE
SAE
SAE
SAE
SAE
SAE
SAE
SAE
SAE
SAE
SAE
SAE
SAE
SAE
SAE
SAE
SAE
SAE
SAE
SAE
SAE
SAE
SAE
SAE
SAE
SAE
SAE
SAE
SAE
SAE
SAE
SAE
SAE
SAE
SAE
SAE
SAE
SAE
SAE
SAE
SAE
SAE
SAE
SAE
SAE
SAE
SAE
SAE
SAE
SAE
SAE
SAE
SAE
SAE
SAE
SAE
SAE
SAE
SAE
SAE
SAE
SAE
SAE
SAE
SAE
SAE
SAE
SAE
SAE
SAE
SAE
SAE
SAE
SAE
SAE
SAE
SAE
SAE
SAE
SAE
SAE
SAE
SAE
SAE
SAE
SAE
SAE
SAE
SAE
SAE
SAE
SAE
SAE
SAE
SAE
SAE
SAE
SAE
SAE
SAE
SAE
SAE
SAE
SAE
SAE
SAE
SAE
SAE
SAE
SAE
SAE
SAE
SAE
SAE
SAE
SAE
SAE
SAE
SAE
SAE
SAE
SAE
SAE
SAE
SAE
SAE
SAE
SAE
SAE
SAE
SAE
SAE
SAE
SAE
SAE
SAE
SAE
SAE
SAE
SAE
SAE
SAE
SAE
SAE
SAE
SAE
SAE
SAE
SAE
SAE
SAE
SAE
SAE
SAE
SAE
SAE
SAE
SAE
SAE
SAE
SAE
SAE
SAE
SAE
SAE
SAE
SAE
SAE
SAE
SAE
SAE
SAE
SAE
SAE
SAE
SAE
SAE
SAE
SAE
SAE
SAE
SAE
SAE
SAE
SAE
SAE
SAE
SAE
SAE
SAE
SAE
SAE
SAE
SAE
SAE
SAE
SAE
SAE
SAE
SAE
SAE
SAE
SAE
SAE
SAE
SAE
SAE
SAE
SAE
SAE
SAE
SAE
SAE
SAE
SAE
SAE
SAE
SAE
SAE
SAE
SAE
SAE
SAE
SAE
SAE
SAE
SAE
SAE
SAE
SAE
SAE
SAE
SAE
SAE
SAE
SAE
SAE
SAE
SAE
SAE
SAE
SAE
SAE
SAE
SAE
SAE
SAE
SAE
SAE
SAE
SAE
SAE
SAE
SAE
SAE
SAE
SAE
SAE
SAE
SAE
SAE
SAE
SAE
SAE
SAE
SAE
SAE
SAE
SAE
SAE
SAE
SAE
SAE
SAE
SAE
SAE
SAE
SAE
SAE
SAE
SAE
SAE
SAE
SAE
SAE
SAE
SAE
SAE
SAE
SAE
SAE
SAE
SAE
SAE
SAE
SAE
SAE
SAE
SAE
SAE
SAE
SAE
SAE
SAE
SAE
SAE
SAE
SAE
SAE
SAE
SAE
SAE
SAE
SAE
SAE
SAE
SAE
SAE
SAE
SAE
SAE
SAE
SAE
SAE
SAE
SAE
SAE
SAE
SAE
SAE
SAE
SAE
SAE
SAE
SAE
SAE
SAE
SAE
SAE
SAE
SAE
SAE
SAE
SAE
SAE
SAE
SAE
SAE
SAE
SAE
SAE
SAE
SAE
SAE
SAE
SAE
SAE
SAE
SAE
SAE
SAE
SAE
SAE
SAE
SAE
SAE
SAE
SAE
SAE
SAE
SAE
SAE
SAE
SAE
SAE
SAE
SAE
SAE
SAE
SAE
SAE
SAE
SAE
SAE
SAE
SAE
SAE
SAE
SAE
SAE
SAE
SAE
SAE
SAE
SAE
SAE
SAE
SAE
SAE
SAE
SAE
SAE
SAE
SAE
SAE
SAE
SAE
SAE
SAE
SAE
SAE
SAE
SAE
SAE
SAE
SAE
SAE
SAE
SAE
SAE
SAE
SAE
SAE
SAE
SAE
SAE
SAE
SAE
SAE
SAE
SAE
SAE
SAE
SAE
SAE
SAE
SAE
SAE
SAE
SAE
SAE
SAE
SAE
SAE
SAE
SAE
SAE
SAE
SAE
SAE
SAE
SAE
SAE
SAE
SAE
SAE
SAE
SAE
SAE
SAE
SAE
SAE
SAE
SAE
SAE
SAE
SAE
SAE
SAE
SAE
SAE
SAE
SAE
SAE
SAE
SAE
SAE
SAE
SAE
SAE
SAE
SAE
SAE
SAE
SAE
SAE
SAE
SAE
SAE
SAE
SAE
SAE
SAE
SAE
SAE
SAE
SAE
SAE
SAE
SAE
SAE
SAE
SAE
SAE
SAE
SAE
SAE
SAE
SAE
SAE
SAE
SAE
SAE
SAE
SAE
SAE
SAE
SAE
SAE
SAE
SAE
SAE
SAE
SAE
SAE
SAE
SAE
SAE
SAE
SAE
SAE
SAE
SAE
SAE
SAE
SAE
SAE
SAE
SAE
SAE
SAE
SAE
SAE
SAE
SAE
SAE
SAE
SAE
SAE
SAE
SAE
SAE
SAE
SAE
SAE
SAE
SAE
SAE
SAE
SAE
SAE
SAE
SAE
SAE
SAE
SAE
SAE
SAE
SAE
SAE
SAE
SAE
SAE
SAE
SAE
SAE
SAE
SAE
SAE
SAE
SAE
SAE
SAE
SAE
SAE
SAE
SAE
SAE
SAE
SAE
SAE
SAE
SAE
SAE
SAE
SAE
SAE
SAE
SAE
SAE
SAE
SAE
SAE
SAE
SAE
SAE
SAE
SAE
SAE
SAE
SAE
SAE
SAE
SAE
SAE
SAE
SAE
SAE
SAE
SAE
SAE
SAE
SAE
SAE
SAE
SAE
SAE
SAE
SAE
SAE
SAE
SAE
SAE
SAE
SAE
SAE
SAE
SAE
SAE
SAE
SAE
SAE
SAE
SAE
SAE
SAE
SAE
SAE
SAE
SAE
SAE
SAE
SAE
SAE
SAE
SAE
SAE
SAE
SAE
SAE
SAE
SAE
SAE
SAE
SAE
SAE
SAE
SAE
SAE
SAE
SAE
SAE
SAE
SAE
SAE
SAE
SAE
SAE
SAE
SAE
SAE
SAE
SAE
SAE
SAE
SAE
SAE
SAE
SAE
SAE
SAE
SAE
SAE
SAE
SAE
SAE
SAE
SAE
SAE
SAE
SAE
SAE
SAE
SAE
SAE
SAE
SAE
SAE
SAE
SAE
SAE
SAE
SAE
SAE
SAE
SAE
SAE
SAE
SAE
SAE
SAE
SAE
SAE
SAE
SAE
SAE
SAE
SAE
SAE
SAE
SAE
SAE
SAE
SAE
SAE
SAE
SAE
SAE
SAE
SAE
SAE
SAE
SAE
SAE
SAE
SAE
SAE
SAE
SAE
SAE
SAE
SAE
SAE
SAE
SAE
SAE
SAE
SAE
SAE
SAE
SAE
SAE
SAE
SAE
SAE
SAE
SAE
SAE
SAE
SAE
SAE
SAE
SAE
SAE
SAE
SAE
SAE
SAE
SAE
SAE
SAE
SAE
SAE
SAE
SAE
SAE
SAE
SAE
SAE
SAE
SAE
SAE
SAE
SAE
SAE
SAE
SAE
SAE
SAE
SAE
SAE
SAE
SAE
SAE
SAE
SAE
SAE
SAE
SAE
SAE
SAE
SAE
SAE
SAE
SAE
SAE
SAE
SAE
SAE
SAE
SAE
SAE
SAE
SAE
SAE
SAE
SAE
SAE
SAE
SAE
SAE
SAE
SAE
SAE
SAE
SAE
SAE
SAE
SAE
SAE
SAE
SAE
SAE
SAE
SAE
SAE
SAE
SAE
SAE
SAE
SAE
SAE
SAE
SAE
SAE
SAE
SAE
SAE
SAE
SAE
SAE
SAE
SAE
SAE
SAE
SAE
SAE
SAE
SAE
SAE
SAE
SAE
SAE
SAE
SAE
SAE
SAE
SAE
SAE
SAE
SAE
SAE
SAE
SAE
SAE
SAE
SAE
SAE
SAE
SAE
SAE
SAE
SAE
SAE
SAE
SAE
SAE
SAE
SAE
SAE
SAE
SAE
SAE
SAE
SAE
SAE
SAE
SAE
SAE
SAE
SAE
SAE
SAE
SAE
SAE
SAE
SAE
SAE
SAE
SAE
SAE
SAE
SAE
SAE
SAE
SAE
SAE
SAE
SAE
SAE
SAE
SAE
SAE
SAE
SAE
SAE
SAE
SAE
SAE
SAE
SAE
SAE
SAE
SAE
SAE
SAE
SAE
SAE
SAE
SAE
SAE
SAE
SAE
SAE
SAE
SAE
SAE
SAE
SAE
SAE
SAE
SAE
SAE
SAE
SAE
SAE
SAE
SAE
SAE
SAE
SAE
SAE
SAE
SAE
SAE
SAE
SAE
SAE
SAE
SAE
SAE
SAE
SAE
SAE
SAE
SAE
SAE
SAE
SAE
SAE
SAE
SAE
SAE
SAE
SAE
SAE
SAE
SAE
SAE
SAE
SAE
SAE
SAE
SAE
SAE
SAE
SAE
SAE
SAE
SAE
SAE
SAE
SAE
SAE
SAE
SAE
SAE
SAE
SAE
SAE
SAE
SAE
SAE
SAE
SAE
SAE
SAE
SAE
SAE
SAE
SAE
SAE
SAE
SAE
SAE
SAE
SAE
SAE
SAE
SAE
SAE
SAE
SAE
SAE
SAE
SAE
SAE
SAE
SAE
SAE
SAE
SAE
SAE
SAE
SAE
SAE
SAE
SAE
SAE
SAE
SAE
SAE
SAE
SAE
SAE
SAE
SAE
SAE
SAE
SAE
SAE
SAE
SAE
SAE
SAE
SAE
SAE
SAE
SAE
SAE
SAE
SAE
SAE
SAE
SAE
SAE
SAE
SAE
SAE
SAE
SAE
SAE
SAE
SAE
SAE
SAE
SAE
SAE
SAE
SAE
SAE
SAE
SAE
SAE
SAE
SAE
SAE
SAE
SAE
SAE
SAE
SAE
SAE
SAE
SAE
SAE
SAE
SAE
SAE
SAE
SAE
SAE
SAE
SAE
SAE
SAE
SAE
SAE
SAE
SAE
SAE
SAE
SAE
SAE
SAE
SAE
SAE
SAE
SAE
SAE
SAE
SAE
SAE
SAE
SAE
SAE
SAE
SAE
SAE
SAE
SAE
SAE
SAE
SAE
SAE
SAE
SAE
SAE
SAE
SAE
SAE
SAE
SAE
SAE
SAE
SAE
SAE
SAE
SAE
SAE
SAE
SAE
SAE
SAE
SAE
SAE
SAE
SAE
SAE
SAE
SAE
SAE
SAE
SAE
SAE
SAE
SAE
SAE
SAE
SAE
SAE
SAE
SAE
SAE
SAE
SAE
SAE
SAE
SAE
SAE
SAE
SAE
SAE
SAE
SAE
SAE
SAE
SAE
SAE
SAE
SAE
SAE
SAE
SAE
SAE
SAE
SAE
SAE
SAE
SAE
SAE
SAE
SAE
SAE
SAE
SAE
SAE
SAE
SAE
SAE
SAE
SAE
SAE
SAE
SAE
SAE
SAE
SAE
SAE
SAE
SAE
SAE
SAE
SAE
SAE
SAE
SAE
SAE
SAE
SAE
SAE
SAE
SAE
SAE
SAE
SAE
SAE
SAE
SAE
SAE
SAE
SAE
SAE
SAE
SAE
SAE
SAE
SAE
SAE
SAE
SAE
SAE
SAE
SAE
SAE
SAE
SAE
SAE
SAE
SAE
SAE
SAE
SAE
SAE
SAE
SAE
SAE
SAE
SAE
SAE
SAE
SAE
SAE
SAE
SAE
SAE
SAE
SAE
SAE
SAE
SAE
SAE
SAE
SAE
SAE
SAE
SAE
SAE
SAE
SAE
SAE
SAE
SAE
SAE
SAE
SAE
SAE
SAE
SAE
SAE
SAE
SAE
SAE
SAE
SAE
SAE
SAE
SAE
SAE
SAE
SAE
SAE
SAE
SAE
SAE
SAE
SAE
SAE
SAE
SAE
SAE
SAE
SAE
SAE
SAE
SAE
SAE
SAE
SAE
SAE
SAE
SAE
SAE
SAE
SAE
SAE
SAE
SAE
SAE
SAE
SAE
SAE
SAE
SAE
SAE
SAE
SAE
SAE
SAE
SAE
SAE
SAE
SAE
SAE
SAE
SAE
SAE
SAE
SAE
SAE
SAE
SAE
SAE
SAE
SAE
SAE
SAE
SAE
SAE
SAE
SAE
SAE
SAE
SAE
SAE
SAE
SAE
SAE
SAE
SAE
SAE
SAE
SAE
SAE
SAE
SAE
SAE
SAE
SAE
SAE
SAE
SAE
SAE
SAE
SAE
SAE
SAE
SAE
SAE
SAE
SAE
SAE
SAE
SAE
SAE
SAE
SAE
SAE
SAE
SAE
SAE
SAE
SAE
SAE
SAE
SAE
SAE
SAE
SAE
SAE
SAE
SAE
SAE
SAE
SAE
SAE
SAE
SAE
SAE
SAE
SAE
SAE
SAE
SAE
SAE
SAE
SAE
SAE
SAE
SAE
SAE
SAE
SAE
SAE
SAE
SAE
SAE
SAE
SAE
SAE
SAE
SAE
SAE
SAE
SAE
SAE
SAE
SAE
SAE
SAE
SAE
SAE
SAE
SAE
SAE
SAE
SAE
SAE
SAE
SAE
SAE
SAE
SAE
SAE
SAE
SAE
SAE
SAE
SAE
SAE
SAE
SAE
SAE
SAE
SAE
SAE
SAE
SAE
SAE
SAE
SAE
SAE
SAE
SAE
SAE
SAE
SAE
SAE
SAE
SAE
SAE
SAE
SAE
SAE
SAE
SAE
SAE
SAE
SAE
SAE
SAE
SAE
SAE
SAE
SAE
SAE
SAE
SAE
SAE
SAE
SAE
SAE
SAE
SAE
SAE
SAE
SAE
SAE
SAE
SAE
SAE
SAE
SAE
SAE
SAE
SAE
SAE
SAE
SAE
SAE
SAE
SAE
SAE
SAE
SAE
SAE
SAE
SAE
SAE
SAE
SAE
SAE
SAE
SAE
SAE
SAE
SAE
SAE
SAE
SAE
SAE
SAE
SAE
SAE
SAE
SAE
SAE
SAE
SAE
SAE
SAE
SAE
SAE
SAE
SAE
SAE
SAE
SAE
SAE
SAE
SAE
SAE
SAE
SAE
SAE
SAE
SAE
SAE
SAE
SAE
SAE
SAE
SAE
SAE
SAE
SAE
SAE
SAE
SAE
SAE
SAE
SAE
SAE
SAE
SAE
SAE
SAE
SAE
SAE
SAE
SAE
SAE
SAE
SAE
SAE
SAE
SAE
SAE
SAE
SAE
SAE
SAE
SAE
SAE
SAE
SAE
SAE
SAE
SAE
SAE
SAE
SAE
SAE
SAE
SAE
SAE
SAE
SAE
SAE
SAE
SAE
SAE
SAE
SAE
SAE
SAE
SAE
SAE
SAE
SAE
SAE
SAE
SAE
SAE
SAE
SAE
SAE
SAE
SAE
SAE
SAE
SAE
SAE
SAE
SAE
SAE
SAE
SAE
SAE
SAE
SAE
SAE
SAE
SAE
SAE
SAE
SAE
SAE
SAE
SAE
SAE
SAE
SAE
SAE
SAE
SAE
SAE
SAE
SAE
SAE
SAE
SAE
SAE
SAE
SAE
SAE
SAE
SAE
SAE
SAE
SAE
SAE
SAE
SAE
SAE
SAE
SAE
SAE
SAE
SAE
SAE
SAE
SAE
SAE
SAE
SAE
SAE
SAE
SAE
SAE
SAE
SAE
SAE
SAE
SAE
SAE
SAE
SAE
SAE
SAE
SAE
SAE
SAE
SAE
SAE
SAE
SAE
SAE
SAE
SAE
SAE
SAE
SAE
SAE
SAE
SAE
SAE
SAE
SAE
SAE
SAE
SAE
SAE
SAE
SAE
SAE
SAE
SAE
SAE
SAE
SAE
SAE
SAE
SAE
SAE
SAE
SAE
SAE
SAE
SAE
SAE
SAE
SAE
SAE
SAE
SAE
SAE
SAE
SAE
SAE
SAE
SAE
SAE
SAE
SAE
SAE
SAE
SAE
SAE
SAE
SAE
SAE
SAE
SAE
SAE
SAE
SAE
SAE
SAE
SAE
SAE
SAE
SAE
SAE
SAE
SAE
SAE
SAE
SAE
SAE
SAE
SAE
SAE
SAE
SAE
SAE
SAE
SAE
SAE
SAE
SAE
SAE
SAE
SAE
SAE
SAE
SAE
SAE
SAE
SAE
SAE
SAE
SAE
SAE
SAE
SAE
SAE
SAE
SAE
SAE
SAE
SAE
SAE
SAE
SAE
SAE
SAE
SAE
SAE
SAE
SAE
SAE
SAE
SAE
SAE
SAE
SAE
SAE
SAE
SAE
SAE
SAE
SAE
SAE
SAE
SAE
SAE
SAE
SAE
SAE
SAE
SAE
SAE
SAE
SAE
SAE
SAE
SAE
SAE
SAE
SAE
SAE
SAE
SAE
SAE
SAE
SAE
SAE
SAE
SAE
SAE
SAE
SAE
SAE
SAE
SAE
SAE
SAE
SAE
SAE
SAE
SAE
SAE
SAE
SAE
SAE
SAE
SAE
SAE
SAE
SAE
SAE
SAE
SAE
SAE
SAE
SAE
SAE
SAE
SAE
SAE
SAE
SAE
SAE
SAE
SAE
SAE
SAE
SAE
SAE
SAE
SAE
SAE
SAE
SAE
SAE
SAE
SAE
SAE
SAE
SAE
SAE
SAE
SAE
SAE
SAE
SAE
SAE
SAE
SAE
SAE
SAE
SAE
SAE
SAE
SAE
SAE
SAE
SAE
SAE
SAE
SAE
SAE
SAE
SAE
SAE
SAE
SAE
SAE
SAE
SAE
SAE
SAE
SAE
SAE
SAE
SAE
SAE
SAE
SAE
SAE
SAE
SAE
SAE
SAE
SAE
SAE
SAE
SAE
SAE
SAE
SAE
SAE
SAE
SAE
SAE
SAE
SAE
SAE
SAE
SAE
SAE
SAE
SAE
SAE
SAE
SAE
SAE
SAE
SAE
SAE
SAE
SAE
SAE
SAE
SAE
SAE
SAE
SAE
SAE
SAE
SAE
SAE
SAE
SAE
SAE
SAE
SAE
SAE
SAE
SAE
SAE
SAE
SAE
SAE
SAE
SAE
SAE
SAE
SAE
SAE
SAE
SAE
SAE
SAE
SAE
SAE
SAE
SAE
SAE
SAE
SAE
SAE
SAE
SAE
SAE
SAE
SAE
SAE
SAE
SAE
SAE
SAE
SAE
SAE
SAE
SAE
SAE
SAE
SAE
SAE
SAE
SAE
SAE
SAE
SAE
SAE
SAE
SAE
SAE
SAE
SAE
SAE
SAE
SAE
SAE
SAE
SAE
SAE
SAE
SAE
SAE
SAE
SAE
SAE
SAE
SAE
SAE
SAE
SAE
SAE
SAE
SAE
SAE
SAE
SAE
SAE
SAE
SAE
SAE
SAE
SAE
SAE
SAE
SAE
SAE
SAE
SAE
SAE
SAE
SAE
SAE
SAE
SAE
SAE
SAE
SAE
SAE
SAE
SAE
SAE
SAE
SAE
SAE
SAE
SAE
SAE
SAE
SAE
SAE
SAE
SAE
SAE
SAE
SAE
SAE
SAE
SAE
SAE
SAE
SAE
SAE
SAE
SAE
SAE
SAE
SAE
SAE
SAE
SAE
SAE
SAE
SAE
SAE
SAE
SAE
SAE
SAE
SAE
SAE
SAE
SAE
SAE
SAE
SAE
SAE
SAE
SAE
SAE
SAE
SAE
SAE
SAE
SAE
SAE
SAE
SAE
SAE
SAE
SAE
SAE
SAE
SAE
SAE
SAE
SAE
SAE
SAE
SAE
SAE
SAE
SAE
SAE
SAE
SAE
SAE
SAE
SAE
SAE
SAE
SAE
SAE
SAE
SAE
SAE
SAE
SAE
SAE
SAE
SAE
SAE
SAE
SAE
SAE
SAE
SAE
SAE
SAE
SAE
SAE
SAE
SAE
SAE
SAE
SAE
SAE
SAE
SAE
SAE
SAE
SAE
SAE
SAE
SAE
SAE
SAE
SAE
SAE
SAE
SAE
SAE
SAE
SAE
SAE
SAE
SAE
SAE
SAE
SAE
SAE
SAE
SAE
SAE
SAE
SAE
SAE
SAE
SAE
SAE
SAE
SAE
SAE
SAE
SAE
SAE
SAE
SAE
SAE
SAE
SAE
SAE
SAE
SAE
SAE
SAE
SAE
SAE
SAE
SAE
SAE
SAE
SAE
SAE
SAE
SAE
SAE
SAE
SAE
SAE
SAE
SAE
SAE
SAE
SAE
SAE
SAE
SAE
SAE
SAE
SAE
SAE
SAE
SAE
SAE
SAE
SAE
SAE
SAE
SAE
SAE
SAE
SAE
SAE
SAE
SAE
SAE
SAE
SAE
SAE
SAE
SAE
SAE
SAE
SAE
SAE
SAE
SAE
SAE
SAE
SAE
SAE
SAE
SAE
SAE
SAE
SAE
SAE
SAE
SAE
SAE
SAE
SAE
SAE
SAE
SAE
SAE
SAE
SAE
SAE
SAE
SAE
SAE
SAE
SAE
SAE
SAE
SAE
SAE
SAE
SAE
SAE
SAE
SAE
SAE
SAE
SAE
SAE
SAE
SAE
SAE
SAE
SAE
SAE
SAE
SAE
SAE
SAE
SAE
SAE
SAE
SAE
SAE
SAE
SAE
SAE
SAE
SAE
SAE
SAE
SAE
SAE
SAE
SAE
SAE
SAE
SAE
SAE
SAE
SAE
SAE
SAE
SAE
SAE
SAE
SAE
SAE
SAE
SAE
SAE
SAE
SAE
SAE
SAE
SAE
SAE
SAE
SAE
SAE
SAE
SAE
SAE
SAE
SAE
SAE
SAE
SAE
SAE
SAE
SAE
SAE
SAE
SAE
SAE
SAE
SAE
SAE
SAE
SAE
SAE
SAE
SAE
SAE
SAE
SAE
SAE
SAE
SAE
SAE
SAE
SAE
SAE
SAE
SAE
SAE
SAE
SAE
SAE
SAE
SAE
SAE
SAE
SAE
SAE
SAE
SAE
SAE
SAE
SAE
SAE
SAE
SAE
SAE
SAE
SAE
SAE
SAE
SAE
SAE
SAE
SAE
SAE
SAE
SAE
SAE
SAE
SAE
SAE
SAE
SAE
SAE
SAE
SAE
SAE
SAE
SAE
SAE
SAE
SAE
SAE
SAE
SAE
SAE
SAE
SAE
SAE
SAE
SAE
SAE
SAE
SAE
SAE
SAE
SAE
SAE
SAE
SAE
SAE
SAE
SAE
SAE
SAE
SAE
SAE
SAE
SAE
SAE
SAE
SAE
SAE
SAE
SAE
SAE
SAE
SAE
SAE
SAE
SAE
SAE
SAE
SAE
SAE
SAE
SAE
SAE
SAE
SAE
SAE
SAE
SAE
SAE
SAE
SAE
SAE
SAE
SAE
SAE
SAE
SAE
SAE
SAE
SAE
SAE
SAE
SAE
SAE
SAE
SAE
SAE
SAE
SAE
SAE
SAE
SAE
SAE
SAE
SAE
SAE
SAE
SAE
SAE
SAE
SAE
SAE
SAE
SAE
SAE
SAE
SAE
SAE
SAE
SAE
SAE
SAE
SAE
SAE
SAE
SAE
SAE
SAE
SAE
SAE
SAE
SAE
SAE
SAE
SAE
SAE
SAE
SAE
SAE
SAE
SAE
SAE
SAE
SAE
SAE
SAE
SAE
SAE
SAE
SAE
SAE
SAE
SAE
SAE
SAE
SAE
SAE
SAE
SAE
SAE
SAE
SAE
SAE
SAE
SAE
SAE
SAE
SAE
SAE
SAE
SAE
SAE
SAE
SAE
SAE
SAE
SAE
SAE
SAE
SAE
SAE
SAE
SAE
SAE
SAE
SAE
SAE
SAE
SAE
SAE
SAE
SAE
SAE
SAE
SAE
SAE
SAE
SAE
SAE
SAE
SAE
SAE
SAE
SAE
SAE
SAE
SAE
SAE
SAE
SAE
SAE
SAE
SAE
SAE
SAE
SAE
SAE
SAE
SAE
SAE
SAE
SAE
SAE
SAE
SAE
SAE
SAE
SAE
SAE
SAE
SAE
SAE
SAE
SAE
SAE
SAE
SAE
SAE
SAE
SAE
SAE
SAE
SAE
SAE
SAE
SAE
SAE
SAE
SAE
SAE
SAE
SAE
SAE
SAE
SAE
SAE
SAE
SAE
SAE
SAE
SAE
SAE
SAE
SAE
SAE
SAE
SAE
SAE
SAE
SAE
SAE
SAE
SAE
SAE
SAE
SAE
SAE
SAE
SAE
SAE
SAE
SAE
SAE
SAE
SAE
SAE
SAE
SAE
SAE
SAE
SAE
SAE
SAE
SAE
SAE
SAE
SAE
SAE
SAE
SAE
SAE
SAE
SAE
SAE
SAE
SAE
SAE
SAE
SAE
SAE
SAE
SAE
SAE
SAE
SAE
SAE
SAE
SAE
SAE
SAE
SAE
SAE
SAE
SAE
SAE
SAE
SAE
SAE
SAE
SAE
SAE
SAE
SAE
SAE
SAE
SAE
SAE
SAE
SAE
SAE
SAE
SAE
SAE
SAE
SAE
SAE
SAE
SAE
SAE
SAE
SAE
SAE
SAE
SAE
SAE
SAE
SAE
SAE
SAE
SAE
SAE
SAE
SAE
SAE
SAE
SAE
SAE
SAE
SAE
SAE
SAE
SAE
SAE
SAE
SAE
SAE
SAE
SAE
SAE
SAE
SAE
SAE
SAE
SAE
SAE
SAE
SAE
SAE
SAE
SAE
SAE
SAE
SAE
SAE
SAE
SAE
SAE
SAE
SAE
SAE
SAE
SAE
SAE
SAE
SAE
SAE
SAE
SAE
SAE
SAE
SAE
SAE
SAE
SAE
SAE
SAE
SAE
SAE
SAE
SAE
SAE
SAE
SAE
SAE
SAE
SAE
SAE
SAE
SAE
SAE
SAE
SAE
SAE
SAE
SAE
SAE
SAE
SAE
SAE
SAE
SAE
SAE
SAE
SAE
SAE
SAE
SAE
SAE
SAE
SAE
SAE
SAE
SAE
SAE
SAE
SAE
SAE
SAE
SAE
SAE
SAE
SAE
SAE
SAE
SAE
SAE
SAE
SAE
SAE
SAE
SAE
SAE
SAE
SAE
SAE
SAE
SAE
SAE
SAE
SAE
SAE
SAE
SAE
SAE
SAE
SAE
SAE
SAE
SAE
SAE
SAE
SAE
SAE
SAE
SAE
SAE
SAE
SAE
SAE
SAE
SAE
SAE
SAE
SAE
SAE
SAE
SAE
SAE
SAE
SAE
SAE
SAE
SAE
SAE
SAE
SAE
SAE
SAE
SAE
SAE
SAE
SAE
SAE
SAE
SAE
SAE
SAE
SAE
SAE
SAE
SAE
SAE
SAE
SAE
SAE
SAE
SAE
SAE
SAE
SAE
SAE
SAE
SAE
SAE
SAE
SAE
SAE
SAE
SAE
SAE
SAE
SAE
SAE
SAE
SAE
SAE
SAE
SAE
SAE
SAE
SAE
SAE
SAE
SAE
SAE
SAE
SAE
SAE
SAE
SAE
SAE
SAE
SAE
SAE
SAE
SAE
SAE
SAE
SAE
SAE
SAE
SAE
SAE
SAE
SAE
SAE
SAE
SAE
SAE
SAE
SAE
SAE
SAE
SAE
SAE
SAE
SAE
SAE
SAE
SAE
SAE
SAE
SAE
SAE
SAE
SAE
SAE
SAE
SAE
SAE
SAE
SAE
SAE
SAE
SAE
SAE
SAE
SAE
SAE
SAE
SAE
SAE
SAE
SAE
SAE
SAE
SAE
SAE
SAE
SAE
SAE
SAE
SAE
SAE
SAE
SAE
SAE
SAE
SAE
SAE
SAE
SAE
SAE
SAE
SAE
SAE
SAE
SAE
SAE
SAE
SAE
SAE
SAE
SAE
SAE
SAE
SAE
SAE
SAE
SAE
SAE
SAE
SAE
SAE
SAE
SAE
SAE
SAE
SAE
SAE
SAE
SAE
SAE
SAE
SAE
SAE
SAE
SAE
SAE
SAE
SAE
SAE
SAE
SAE
SAE
SAE
SAE
SAE
SAE
SAE
SAE
SAE
SAE
SAE
SAE
SAE
SAE
SAE
SAE
SAE
SAE
SAE
SAE
SAE
SAE
SAE
SAE
SAE
SAE
SAE
SAE
SAE
SAE
SAE
SAE
SAE
SAE
SAE
SAE
SAE
SAE
SAE
SAE
SAE
SAE
SAE
SAE
SAE
SAE
SAE
SAE
SAE
SAE
SAE
SAE
SAE
SAE
SAE
SAE
SAE
SAE
SAE
SAE
SAE
SAE
SAE
SAE
SAE
SAE
SAE
SAE
SAE
SAE
SAE
SAE
SAE
SAE
SAE
SAE
SAE
SAE
SAE
SAE
SAE
SAE
SAE
SAE
SAE
SAE
SAE
SAE
SAE
SAE
SAE
SAE
SAE
SAE
SAE
SAE
SAE
SAE
SAE
SAE
SAE
SAE
SAE
SAE
SAE
SAE
SAE
SAE
SAE
SAE
SAE
SAE
SAE
SAE
SAE
SAE
SAE
SAE
SAE
SAE
SAE
SAE
SAE
SAE
SAE
SAE
SAE
SAE
SAE
SAE
SAE
SAE
SAE
SAE
SAE
SAE
SAE
SAE
SAE
SAE
SAE
SAE
SAE
SAE
SAE
SAE
SAE
SAE
SAE
SAE
SAE
SAE
SAE
SAE
SAE
SAE
SAE
SAE
SAE
SAE
SAE
SAE
SAE
SAE
SAE
SAE
SAE
SAE
SAE
SAE
SAE
SAE
SAE
SAE
SAE
SAE
SAE
SAE
SAE
SAE
SAE
SAE
SAE
SAE
SAE
SAE
[...]
SAE
SAE
SAE
SAE
SAE
SAE
SAE
SAE
SAE
SAE
SAE
SAE
SAE
SAE
SAE
SAE
SAE
SAE
SAE
SAE
SAE
SAE
SAE
SAE
SAE
SAE
SAE
SAE
SAE
SAE
SAE
SAE
SAE
SAE
SAE
SAE
SAE
SAE
SAE
SAE
SAE
SAE
SAE
SAE
SAE
SAE
SAE
SAE
SAE
SAE
SAE
SAE
SAE
SAE
SAE
SAE
SAE
SAE
SAE
SAE
SAE
SAE
SAE
SAE
SAE
SAE
SAE
SAE
SAE
SAE
SAE
SAE
SAE
SAE
SAE
SAE
SAE
SAE
SAE
SAE
SAE
SAE
SAE
SAE
SAE
SAE
SAE
SAE
SAE
SAE
SAE
SAE
SAE
SAE
SAE
SAE
SAE
SAE
SAE
SAE
SAE
SAE
SAE
SAE
SAE
SAE
SAE
SAE
SAE
SAE
SAE
SAE
SAE
SAE
SAE
SAE
SAE
SAE
SAE
SAE
SAE
SAE
SAE
SAE
SAE
SAE
SAE
SAE
SAE
SAE
SAE
SAE
SAE
SAE
SAE
SAE
SAE
SAE
SAE
SAE
SAE
SAE
SAE
SAE
SAE
SAE
SAE
SAE
SAE
SAE
SAE
SAE
SAE
SAE
SAE
SAE
SAE
SAE
SAE
SAE
SAE
SAE
SAE
SAE
SAE
SAE
SAE
SAE
SAE
SAE
SAE
SAE
SAE
SAE
SAE
SAE
SAE
SAE
SAE
SAE
SAE
SAE
SAE
SAE
SAE
SAE
SAE
SAE
SAE
SAE
SAE
SAE
SAE
SAE
SAE
SAE
SAE
SAE
SAE
SAE
SAE
SAE
SAE
SAE
SAE
SAE
SAE
SAE
SAE
SAE
SAE
SAE
SAE
SAE
SAE
SAE
SAE
SAE
SAE
SAE
SAE
SAE
SAE
SAE
SAE
SAE
SAE
SAE
SAE
SAE
SAE
SAE
SAE
SAE
SAE
SAE
SAE
SAE
SAE
SAE
SAE
SAE
SAE
SAE
SAE
SAE
SAE
SAE
SAE
SAE
SAE
SAE
SAE
SAE
SAE
SAE
SAE
SAE
SAE
SAE
SAE
SAE
SAE
SAE
SAE
SAE
SAE
SAE
SAE
SAE
SAE
SAE
SAE
SAE
SAE
SAE
SAE
SAE
SAE
SAE
SAE
SAE
SAE
SAE
SAE
SAE
SAE
SAE
SAE
SAE
SAE
SAE
SAE
SAE
SAE
SAE
SAE
SAE
SAE
SAE
SAE
SAE
SAE
SAE
SAE
SAE
SAE
SAE
SAE
SAE
SAE
SAE
SAE
SAE
SAE
SAE
SAE
SAE
SAE
SAE
SAE
SAE
SAE
SAE
SAE
SAE
SAE
SAE
SAE
SAE
SAE
SAE
SAE
SAE
SAE
SAE
SAE
SAE
SAE
SAE
SAE
SAE
SAE
SAE
SAE
SAE
SAE
SAE
SAE
SAE
SAE
SAE
SAE
SAE
SAE
SAE
SAE
SAE
SAE
SAE
SAE
SAE
SAE
SAE
SAE
SAE
SAE
SAE
SAE
SAE
SAE
SAE
SAE
SAE
SAE
SAE
SAE
SAE
SAE
SAE
SAE
SAE
SAE
SAE
SAE
SAE
SAE
SAE
SAE
SAE
SAE
SAE
SAE
SAE
SAE
SAE
SAE
SAE
SAE
SAE
SAE
SAE
SAE
SAE
SAE
SAE
SAE
SAE
SAE
SAE
SAE
SAE
SAE
SAE
SAE
SAE
SAE
SAE
SAE
SAE
SAE
SAE
SAE
SAE
SAE
SAE
SAE
SAE
SAE
SAE
SAE
SAE
SAE
SAE
SAE
SAE
SAE
SAE
SAE
SAE
SAE
SAE
SAE
SAE
SAE
SAE
SAE
SAE
SAE
SAE
SAE
SAE
SAE
SAE
SAE
SAE
SAE
SAE
SAE
SAE
SAE
SAE
SAE
SAE
SAE
SAE
SAE
SAE
SAE
SAE
SAE
SAE
SAE
SAE
SAE
SAE
SAE
SAE
SAE
SAE
SAE
SAE
SAE
SAE
SAE
SAE
SAE
SAE
SAE
SAE
SAE
SAE
SAE
SAE
SAE
SAE
SAE
SAE
SAE
SAE
SAE
SAE
SAE
SAE
SAE
SAE
SAE
SAE
SAE
SAE
SAE
SAE
SAE
SAE
SAE
SAE
SAE
SAE
SAE
SAE
SAE
SAE
SAE
SAE
SAE
SAE
SAE
SAE
SAE
SAE
SAE
SAE
SAE
SAE
SAE
SAE
SAE
SAE
SAE
SAE
SAE
SAE
SAE
SAE
SAE
SAE
SAE
SAE
SAE
SAE
SAE
SAE
SAE
SAE
SAE
SAE
SAE
SAE
SAE
SAE
SAE
SAE
SAE
SAE
SAE
SAE
SAE
SAE
SAE
SAE
SAE
SAE
SAE
SAE
SAE
SAE
SAE
SAE
SAE
SAE
SAE
SAE
SAE
SAE
SAE
SAE
SAE
SAE
SAE
SAE
SAE
SAE
SAE
SAE
SAE
SAE
SAE
SAE
SAE
SAE
SAE
SAE
SAE
SAE
SAE
SAE
SAE
SAE
SAE
SAE
SAE
SAE
SAE
SAE
SAE
SAE
SAE
SAE
SAE
SAE
SAE
SAE
SAE
SAE
SAE
SAE
SAE
SAE
SAE
SAE
SAE
SAE
SAE
SAE
SAE
SAE
SAE
SAE
SAE
SAE
SAE
SAE
SAE
SAE
SAE
SAE
SAE
SAE
SAE
SAE
SAE
SAE
SAE
SAE
SAE
SAE
SAE
SAE
SAE
SAE
SAE
SAE
SAE
SAE
SAE
SAE
SAE
SAE
SAE
SAE
SAE
SAE
SAE
SAE
SAE
SAE
SAE
SAE
SAE
SAE
SAE
SAE
SAE
SAE
SAE
SAE
SAE
SAE
SAE
SAE
SAE
SAE
SAE
SAE
SAE
SAE
SAE
SAE
SAE
SAE
SAE
SAE
SAE
SAE
SAE
SAE
SAE
SAE
SAE
SAE
SAE
SAE
SAE
SAE
SAE
SAE
SAE
SAE
SAE
SAE
SAE
SAE
SAE
SAE
SAE
SAE
SAE
SAE
SAE
SAE
SAE
SAE
SAE
SAE
SAE
SAE
SAE
SAE
SAE
SAE
SAE
SAE
SAE
SAE
SAE
SAE
SAE
SAE
SAE
SAE
SAE
SAE
SAE
SAE
SAE
SAE
SAE
SAE
SAE
SAE
SAE
SAE
SAE
SAE
SAE
SAE
SAE
SAE
SAE
SAE
SAE
SAE
SAE
SAE
SAE
SAE
SAE
SAE
SAE
SAE
SAE
SAE
SAE
SAE
SAE
SAE
SAE
SAE
SAE
SAE
SAE
SAE
SAE
SAE
SAE
SAE
SAE
SAE
SAE
SAE
SAE
SAE
SAE
SAE
SAE
SAE
SAE
SAE
SAE
SAE
SAE
SAE
SAE
SAE
SAE
SAE
SAE
SAE
SAE
SAE
SAE
SAE
SAE
SAE
SAE
SAE
SAE
SAE
SAE
SAE
SAE
SAE
SAE
SAE
SAE
SAE
SAE
SAE
SAE
SAE
SAE
SAE
SAE
SAE
SAE
SAE
SAE
SAE
SAE
SAE
SAE
SAE
SAE
SAE
SAE
SAE
SAE
SAE
SAE
SAE
SAE
SAE
SAE
SAE
SAE
SAE
SAE
SAE
SAE
SAE
SAE
SAE
SAE
SAE
SAE
SAE
SAE
SAE
SAE
SAE
SAE
SAE
SAE
SAE
SAE
SAE
SAE
SAE
SAE
SAE
SAE
SAE
SAE
SAE
SAE
SAE
SAE
SAE
SAE
SAE
SAE
SAE
SAE
SAE
SAE
SAE
SAE
SAE
SAE
SAE
SAE
SAE
SAE
SAE
SAE
SAE
SAE
SAE
SAE
SAE
SAE
SAE
SAE
SAE
SAE
SAE
SAE
SAE
SAE
SAE
SAE
SAE
SAE
SAE
SAE
SAE
SAE
SAE
SAE
SAE
SAE
SAE
SAE
SAE
SAE
SAE
SAE
SAE
SAE
SAE
SAE
SAE
SAE
SAE
SAE
SAE
SAE
SAE
SAE
SAE
SAE
SAE
SAE
SAE
SAE
SAE
SAE
SAE
SAE
SAE
SAE
SAE
SAE
SAE
SAE
SAE
SAE
SAE
SAE
SAE
SAE
SAE
SAE
SAE
SAE
SAE
SAE
SAE
SAE
SAE
SAE
SAE
SAE
SAE
SAE
SAE
SAE
SAE
SAE
SAE
SAE
SAE
SAE
SAE
SAE
SAE
SAE
SAE
SAE
SAE
SAE
SAE
SAE
SAE
SAE
SAE
SAE
SAE
SAE
SAE
SAE
SAE
SAE
SAE
SAE
SAE
SAE
SAE
SAE
SAE
SAE
SAE
SAE
SAE
SAE
SAE
SAE
SAE
SAE
SAE
SAE
SAE
SAE
SAE
SAE
SAE
SAE
SAE
SAE
SAE
SAE
SAE
SAE
SAE
SAE
SAE
SAE
SAE
SAE
SAE
SAE
SAE
SAE
SAE
SAE
SAE
SAE
SAE
SAE
SAE
SAE
SAE
SAE
SAE
SAE
SAE
SAE
SAE
SAE
SAE
SAE
SAE
SAE
SAE
SAE
SAE
SAE
SAE
SAE
SAE
SAE
SAE
SAE
SAE
SAE
SAE
SAE
SAE
SAE
SAE
SAE
SAE
SAE
SAE
SAE
SAE
SAE
SAE
SAE
SAE
SAE
SAE
SAE
SAE
SAE
SAE
SAE
SAE
SAE
SAE
SAE
SAE
SAE
SAE
SAE
SAE
SAE
SAE
SAE
SAE
SAE
SAE
SAE
SAE
SAE
SAE
SAE
SAE
SAE
SAE
SAE
SAE
SAE
SAE
SAE
SAE
SAE
SAE
SAE
SAE
SAE
SAE
SAE
SAE
SAE
SAE
SAE
SAE
SAE
SAE
SAE
SAE
SAE
SAE
SAE
SAE
SAE
SAE
SAE
SAE
SAE
SAE
SAE
SAE
SAE
SAE
SAE
SAE
SAE
SAE
SAE
SAE
SAE
SAE
SAE
SAE
SAE
SAE
SAE
SAE
SAE
SAE
SAE
SAE
SAE
SAE
SAE
SAE
SAE
SAE
SAE
SAE
SAE
SAE
SAE
SAE
SAE
SAE
SAE
SAE
SAE
SAE
SAE
SAE
SAE
SAE
SAE
SAE
SAE
SAE
SAE
SAE
SAE
SAE
SAE
SAE
SAE
SAE
SAE
SAE
SAE
SAE
SAE
SAE
SAE
SAE
SAE
SAE
SAE
SAE
SAE
SAE
SAE
SAE
SAE
SAE
SAE
SAE
SAE
SAE
SAE
SAE
SAE
SAE
SAE
SAE
SAE
SAE
SAE
SAE
SAE
SAE
SAE
SAE
SAE
SAE
SAE
SAE
SAE
SAE
SAE
SAE
SAE
SAE
SAE
SAE
SAE
SAE
SAE
SAE
SAE
SAE
SAE
SAE
SAE
SAE
SAE
SAE
SAE
SAE
SAE
SAE
SAE
SAE
SAE
SAE
SAE
SAE
SAE
SAE
SAE
SAE
SAE
SAE
SAE
SAE
SAE
SAE
SAE
SAE
SAE
SAE
SAE
SAE
SAE
SAE
SAE
SAE
SAE
SAE
SAE
SAE
SAE
SAE
SAE
SAE
SAE
SAE
SAE
SAE
SAE
SAE
SAE
SAE
SAE
SAE
SAE
SAE
SAE
SAE
SAE
SAE
SAE
SAE
SAE
SAE
SAE
SAE
SAE
SAE
SAE
SAE
SAE
SAE
SAE
SAE
SAE
SAE
SAE
SAE
SAE
SAE
SAE
SAE
SAE
SAE
SAE
SAE
SAE
SAE
SAE
SAE
SAE
SAE
SAE
SAE
SAE
SAE
SAE
SAE
SAE
SAE
SAE
SAE
SAE
SAE
SAE
SAE
SAE
SAE
SAE
SAE
SAE
SAE
SAE
SAE
SAE
SAE
SAE
SAE
SAE
SAE
SAE
SAE
SAE
SAE
SAE
SAE
SAE
SAE
SAE
SAE
SAE
SAE
SAE
SAE
SAE
SAE
SAE
SAE
SAE
SAE
SAE
SAE
SAE
SAE
SAE
SAE
SAE
SAE
SAE
SAE
SAE
SAE
SAE
SAE
SAE
SAE
SAE
SAE
SAE
SAE
SAE
SAE
SAE
SAE
SAE
SAE
SAE
SAE
SAE
SAE
SAE
SAE
SAE
SAE
SAE
SAE
SAE
SAE
SAE
SAE
SAE
SAE
SAE
SAE
SAE
SAE
SAE
SAE
SAE
SAE
SAE
SAE
SAE
SAE
SAE
SAE
SAE
SAE
SAE
SAE
SAE
SAE
SAE
SAE
SAE
SAE
SAE
SAE
SAE
SAE
SAE
SAE
SAE
SAE
SAE
SAE
SAE
SAE
SAE
SAE
SAE
SAE
SAE
SAE
SAE
SAE
SAE
SAE
SAE
SAE
SAE
SAE
SAE
SAE
SAE
SAE
SAE
SAE
SAE
SAE
SAE
SAE
SAE
SAE
SAE
SAE
SAE
SAE
SAE
SAE
SAE
SAE
SAE
SAE
SAE
SAE
SAE
SAE
SAE
SAE
SAE
SAE
SAE
SAE
SAE
SAE
SAE
SAE
SAE
SAE
SAE
SAE
SAE
SAE
SAE
SAE
SAE
SAE
SAE
SAE
SAE
SAE
SAE
SAE
SAE
SAE
SAE
SAE
SAE
SAE
SAE
SAE
SAE
SAE
SAE
SAE
SAE
SAE
SAE
SAE
SAE
SAE
SAE
SAE
SAE
SAE
SAE
SAE
SAE
SAE
SAE
SAE
SAE
SAE
SAE
SAE
SAE
SAE
SAE
SAE
SAE
SAE
SAE
SAE
SAE
SAE
SAE
SAE
SAE
SAE
SAE
SAE
SAE
SAE
SAE
SAE
SAE
SAE
SAE
SAE
SAE
SAE
SAE
SAE
SAE
SAE
SAE
SAE
SAE
SAE
SAE
SAE
SAE
SAE
SAE
SAE
SAE
SAE
SAE
SAE
SAE
SAE
SAE
SAE
SAE
SAE
SAE
SAE
SAE
SAE
SAE
SAE
SAE
SAE
SAE
SAE
SAE
SAE
SAE
SAE
SAE
SAE
SAE
SAE
SAE
SAE
SAE
SAE
SAE
SAE
SAE
SAE
SAE
SAE
SAE
SAE
SAE
SAE
SAE
SAE
SAE
SAE
SAE
SAE
SAE
SAE
SAE
SAE
SAE
SAE
SAE
SAE
SAE
SAE
SAE
SAE
SAE
SAE
SAE
SAE
SAE
SAE
SAE
SAE
SAE
SAE
SAE
SAE
SAE
SAE
SAE
SAE
SAE
SAE
SAE
SAE
SAE
SAE
SAE
SAE
SAE
SAE
SAE
SAE
SAE
SAE
SAE
SAE
SAE
SAE
SAE
SAE
SAE
SAE
SAE
SAE
SAE
SAE
SAE
SAE
SAE
SAE
SAE
SAE
SAE
SAE
SAE
SAE
SAE
SAE
SAE
SAE
SAE
SAE
SAE
SAE
SAE
SAE
SAE
SAE
SAE
SAE
SAE
SAE
SAE
SAE
SAE
SAE
SAE
SAE
SAE
SAE
SAE
SAE
SAE
SAE
SAE
SAE
SAE
SAE
SAE
SAE
SAE
SAE
SAE
SAE
SAE
SAE
SAE
SAE
SAE
SAE
SAE
SAE
SAE
SAE
SAE
SAE
SAE
SAE
SAE
SAE
SAE
SAE
SAE
SAE
SAE
SAE
SAE
SAE
SAE
SAE
SAE
SAE
SAE
SAE
SAE
SAE
SAE
SAE
SAE
SAE
SAE
SAE
SAE
SAE
SAE
SAE
SAE
SAE
SAE
SAE
SAE
SAE
SAE
SAE
SAE
SAE
SAE
SAE
SAE
SAE
SAE
SAE
SAE
SAE
SAE
SAE
SAE
SAE
SAE
SAE
SAE
SAE
SAE
SAE
SAE
SAE
SAE
SAE
SAE
SAE
SAE
SAE
SAE
SAE
SAE
SAE
SAE
SAE
SAE
SAE
SAE
SAE
SAE
SAE
SAE
SAE
SAE
SAE
SAE
SAE
SAE
SAE
SAE
SAE
SAE
SAE
SAE
SAE
SAE
SAE
SAE
SAE
SAE
SAE
SAE
SAE
SAE
SAE
SAE
SAE
SAE
SAE
SAE
SAE
SAE
SAE
SAE
SAE
SAE
SAE
SAE
SAE
SAE
SAE
SAE
SAE
SAE
SAE
SAE
SAE
SAE
SAE
SAE
SAE
SAE
SAE
SAE
SAE
SAE
SAE
SAE
SAE
SAE
SAE
SAE
SAE
SAE
SAE
SAE
SAE
SAE
SAE
SAE
SAE
SAE
SAE
SAE
SAE
SAE
SAE
SAE
SAE
SAE
SAE
SAE
SAE
SAE
SAE
SAE
SAE
SAE
SAE
SAE
SAE
SAE
SAE
SAE
SAE
SAE
SAE
SAE
SAE
SAE
SAE
SAE
SAE
SAE
SAE
SAE
SAE
SAE
SAE
SAE
SAE
SAE
SAE
SAE
SAE
SAE
SAE
SAE
SAE
SAE
SAE
SAE
SAE
SAE
SAE
SAE
SAE
SAE
SAE
SAE
SAE
SAE
SAE
SAE
SAE
SAE
SAE
SAE
SAE
SAE
SAE
SAE
SAE
SAE
SAE
SAE
SAE
SAE
SAE
SAE
SAE
SAE
SAE
SAE
SAE
SAE
SAE
SAE
SAE
SAE
SAE
SAE
SAE
SAE
SAE
SAE
SAE
SAE
SAE
SAE
SAE
SAE
SAE
SAE
SAE
SAE
SAE
SAE
SAE
SAE
SAE
SAE
SAE
SAE
SAE
SAE
SAE
SAE
SAE
SAE
SAE
SAE
SAE
SAE
SAE
SAE
SAE
SAE
SAE
SAE
SAE
SAE
SAE
SAE
SAE
SAE
SAE
SAE
SAE
SAE
SAE
SAE
SAE
SAE
SAE
SAE
SAE
SAE
SAE
SAE
SAE
SAE
SAE
SAE
SAE
SAE
SAE
SAE
SAE
SAE
SAE
SAE
SAE
SAE
SAE
SAE
SAE
SAE
SAE
SAE
SAE
SAE
SAE
SAE
SAE
SAE
SAE
SAE
SAE
SAE
SAE
SAE
SAE
SAE
SAE
SAE
SAE
SAE
SAE
SAE
SAE
SAE
SAE
SAE
SAE
SAE
SAE
SAE
SAE
SAE
SAE
SAE
SAE
SAE
SAE
SAE
SAE
SAE
SAE
SAE
SAE
SAE
SAE
SAE
SAE
SAE
SAE
SAE
SAE
SAE
SAE
SAE
SAE
SAE
SAE
SAE
SAE
SAE
SAE
SAE
SAE
SAE
SAE
SAE
SAE
SAE
SAE
SAE
SAE
SAE
SAE
SAE
SAE
SAE
SAE
SAE
SAE
SAE
SAE
SAE
SAE
SAE
SAE
SAE
SAE
SAE
SAE
SAE
SAE
SAE
SAE
SAE
SAE
SAE
SAE
SAE
SAE
SAE
SAE
SAE
SAE
SAE
SAE
SAE
SAE
SAE
SAE
SAE
SAE
SAE
SAE
SAE
SAE
SAE
SAE
SAE
SAE
SAE
SAE
SAE
SAE
SAE
SAE
SAE
SAE
SAE
SAE
SAE
SAE
SAE
SAE
SAE
SAE
SAE
SAE
SAE
SAE
SAE
SAE
SAE
SAE
SAE
SAE
SAE
SAE
SAE
SAE
SAE
SAE
SAE
SAE
SAE
SAE
SAE
SAE
SAE
SAE
SAE
SAE
SAE
SAE
SAE
SAE
SAE
SAE
SAE
SAE
SAE
SAE
SAE
SAE
SAE
SAE
SAE
SAE
SAE
SAE
SAE
SAE
SAE
SAE
SAE
SAE
SAE
SAE
SAE
SAE
SAE
SAE
SAE
SAE
SAE
SAE
SAE
SAE
SAE
SAE
SAE
SAE
SAE
SAE
SAE
SAE
SAE
SAE
SAE
SAE
SAE
SAE
SAE
SAE
SAE
SAE
SAE
SAE
SAE
SAE
SAE
SAE
SAE
SAE
SAE
SAE
SAE
SAE
SAE
SAE
SAE
SAE
SAE
SAE
SAE
SAE
SAE
SAE
SAE
SAE
SAE
SAE
SAE
SAE
SAE
SAE
SAE
SAE
SAE
SAE
SAE
SAE
SAE
SAE
SAE
SAE
SAE
SAE
SAE
SAE
SAE
SAE
SAE
SAE
SAE
SAE
SAE
SAE
SAE
SAE
SAE
SAE
SAE
SAE
SAE
SAE
SAE
SAE
SAE
SAE
SAE
SAE
SAE
SAE
SAE
SAE
SAE
SAE
SAE
SAE
SAE
SAE
SAE
SAE
SAE
SAE
SAE
SAE
SAE
SAE
SAE
SAE
SAE
SAE
SAE
SAE
SAE
SAE
SAE
SAE
SAE
SAE
SAE
SAE
SAE
SAE
SAE
SAE
SAE
SAE
SAE
SAE
SAE
SAE
SAE
SAE
SAE
SAE
SAE
SAE
SAE
SAE
SAE
SAE
SAE
SAE
SAE
SAE
SAE
SAE
SAE
SAE
SAE
SAE
SAE
SAE
SAE
SAE
SAE
SAE
SAE
SAE
SAE
SAE
SAE
SAE
SAE
SAE
SAE
SAE
SAE
SAE
SAE
SAE
SAE
SAE
SAE
SAE
SAE
SAE
SAE
SAE
SAE
SAE
SAE
SAE
SAE
SAE
SAE
SAE
SAE
SAE
SAE
SAE
SAE
SAE
SAE
SAE
SAE
SAE
SAE
SAE
SAE
SAE
SAE
SAE
SAE
SAE
SAE
SAE
SAE
SAE
SAE
SAE
SAE
SAE
SAE
SAE
SAE
SAE
SAE
SAE
SAE
SAE
SAE
SAE
SAE
SAE
SAE
SAE
SAE
SAE
SAE
SAE
SAE
SAE
SAE
SAE
SAE
SAE
SAE
SAE
SAE
SAE
SAE
SAE
SAE
SAE
SAE
SAE
SAE
SAE
SAE
SAE
SAE
SAE
SAE
SAE
SAE
SAE
SAE
SAE
SAE
SAE
SAE
SAE
SAE
SAE
SAE
SAE
SAE
SAE
SAE
SAE
SAE
SAE
SAE
SAE
SAE
SAE
SAE
SAE
SAE
SAE
SAE
SAE
SAE
SAE
SAE
SAE
SAE
SAE
SAE
SAE
SAE
SAE
SAE
SAE
SAE
SAE
SAE
SAE
SAE
SAE
SAE
SAE
SAE
SAE
SAE
SAE
SAE
SAE
SAE
SAE
SAE
SAE
SAE
SAE
SAE
SAE
SAE
SAE
SAE
SAE
SAE
SAE
SAE
SAE
SAE
SAE
SAE
SAE
SAE
SAE
SAE
SAE
SAE
SAE
SAE
SAE
SAE
SAE
SAE
SAE
SAE
SAE
SAE
SAE
SAE
SAE
SAE
SAE
SAE
SAE
SAE
SAE
SAE
SAE
SAE
SAE
SAE
SAE
SAE
SAE
SAE
SAE
SAE
SAE
SAE
SAE
SAE
SAE
SAE
SAE
SAE
SAE
SAE
SAE
SAE
SAE
SAE
SAE
SAE
SAE
SAE
SAE
SAE
SAE
SAE
SAE
SAE
SAE
SAE
SAE
SAE
SAE
SAE
SAE
SAE
SAE
SAE
SAE
SAE
SAE
SAE
SAE
SAE
SAE
SAE
SAE
SAE
SAE
SAE
SAE
SAE
SAE
SAE
SAE
SAE
SAE
SAE
SAE
SAE
SAE
SAE
SAE
SAE
SAE
SAE
SAE
SAE
SAE
SAE
SAE
SAE
SAE
SAE
SAE
SAE
SAE
SAE
SAE
SAE
SAE
SAE
SAE
SAE
SAE
SAE
SAE
SAE
SAE
SAE
SAE
SAE
SAE
SAE
SAE
SAE
SAE
SAE
SAE
SAE
SAE
SAE
SAE
SAE
SAE
SAE
SAE
SAE
SAE
SAE
SAE
SAE
SAE
SAE
SAE
SAE
SAE
SAE
SAE
SAE
SAE
SAE
SAE
SAE
SAE
SAE
SAE
SAE
SAE
SAE
SAE
SAE
SAE
SAE
SAE
SAE
SAE
SAE
SAE
SAE
SAE
SAE
SAE
SAE
SAE
SAE
SAE
SAE
SAE
SAE
SAE
SAE
SAE
SAE
SAE
SAE
SAE
SAE
SAE
SAE
SAE
SAE
SAE
SAE
SAE
SAE
SAE
SAE
SAE
SAE
SAE
SAE
SAE
SAE
SAE
SAE
SAE
SAE
SAE
SAE
SAE
SAE
SAE
SAE
SAE
SAE
SAE
SAE
SAE
SAE
SAE
SAE
SAE
SAE
SAE
SAE
SAE
SAE
SAE
SAE
SAE
SAE
SAE
SAE
SAE
SAE
SAE
SAE
SAE
SAE
SAE
SAE
SAE
SAE
SAE
SAE
SAE
SAE
SAE
SAE
SAE
SAE
SAE
SAE
SAE
SAE
SAE
SAE
SAE
SAE
SAE
SAE
SAE
SAE
SAE
SAE
SAE
SAE
SAE
SAE
SAE
SAE
SAE
SAE
SAE
SAE
SAE
SAE
SAE
SAE
SAE
SAE
SAE
SAE
SAE
SAE
SAE
SAE
SAE
SAE
SAE
SAE
SAE
SAE
SAE
SAE
SAE
SAE
SAE
SAE
SAE
SAE
SAE
SAE
SAE
SAE
SAE
SAE
SAE
SAE
SAE
SAE
SAE
SAE
SAE
SAE
SAE
SAE
SAE
SAE
SAE
SAE
SAE
SAE
SAE
SAE
SAE
SAE
SAE
SAE
SAE
SAE
SAE
SAE
SAE
SAE
SAE
SAE
SAE
SAE
SAE
SAE
SAE
SAE
SAE
SAE
SAE
SAE
SAE
SAE
SAE
SAE
SAE
SAE
SAE
SAE
SAE
SAE
SAE
SAE
SAE
SAE
SAE
SAE
SAE
SAE
SAE
SAE
SAE
SAE
SAE
SAE
SAE
SAE
SAE
SAE
SAE
SAE
SAE
SAE
SAE
SAE
SAE
SAE
SAE
SAE
SAE
SAE
SAE
SAE
SAE
SAE
SAE
SAE
SAE
SAE
SAE
SAE
SAE
SAE
SAE
SAE
SAE
SAE
SAE
SAE
SAE
SAE
SAE
SAE
SAE
SAE
SAE
SAE
SAE
SAE
SAE
SAE
SAE
SAE
SAE
SAE
SAE
SAE
SAE
SAE
SAE
SAE
SAE
SAE
SAE
SAE
SAE
SAE
SAE
SAE
SAE
SAE
SAE
SAE
SAE
SAE
SAE
SAE
SAE
SAE
SAE
SAE
SAE
SAE
SAE
SAE
SAE
SAE
SAE
SAE
SAE
SAE
SAE
SAE
SAE
SAE
SAE
SAE
SAE
SAE
SAE
SAE
SAE
SAE
SAE
SAE
SAE
SAE
SAE
SAE
SAE
SAE
SAE
SAE
SAE
SAE
SAE
SAE
SAE
SAE
SAE
SAE
SAE
SAE
SAE
SAE
SAE
SAE
SAE
SAE
SAE
SAE
SAE
SAE
SAE
SAE
SAE
SAE
SAE
SAE
SAE
SAE
SAE
SAE
SAE
SAE
SAE
SAE
SAE
SAE
SAE
SAE
SAE
SAE
SAE
SAE
SAE
SAE
SAE
SAE
SAE
SAE
SAE
SAE
SAE
SAE
SAE
SAE
SAE
SAE
SAE
SAE
SAE
SAE
SAE
SAE
SAE
SAE
SAE
SAE
SAE
SAE
SAE
SAE
SAE
SAE
SAE
SAE
SAE
SAE
SAE
SAE
SAE
SAE
SAE
SAE
SAE
SAE
SAE
SAE
SAE
SAE
SAE
SAE
SAE
SAE
SAE
SAE
SAE
SAE
SAE
SAE
SAE
SAE
SAE
SAE
SAE
SAE
SAE
SAE
SAE
SAE
SAE
SAE
SAE
SAE
SAE
SAE
SAE
SAE
SAE
SAE
SAE
SAE
SAE
SAE
SAE
SAE
SAE
SAE
SAE
SAE
SAE
SAE
SAE
SAE
SAE
SAE
SAE
SAE
SAE
SAE
SAE
SAE
SAE
SAE
SAE
SAE
SAE
SAE
SAE
SAE
SAE
SAE
SAE
SAE
SAE
SAE
SAE
SAE
SAE
SAE
SAE
SAE
SAE
SAE
SAE
SAE
SAE
SAE
SAE
SAE
SAE
SAE
SAE
SAE
SAE
SAE
SAE
SAE
SAE
SAE
SAE
SAE
SAE
SAE
SAE
SAE
SAE
SAE
SAE
SAE
SAE
SAE
SAE
SAE
SAE
SAE
SAE
SAE
SAE
SAE
SAE
SAE
SAE
SAE
SAE
SAE
SAE
SAE
SAE
SAE
SAE
SAE
SAE
SAE
SAE
SAE
SAE
SAE
SAE
SAE
SAE
SAE
SAE
SAE
SAE
SAE
SAE
SAE
SAE
SAE
SAE
SAE
SAE
SAE
SAE
SAE
SAE
SAE
SAE
SAE
SAE
SAE
SAE
SAE
SAE
SAE
SAE
SAE
SAE
SAE
SAE
SAE
SAE
SAE
SAE
SAE
SAE
SAE
SAE
SAE
SAE
SAE
SAE
SAE
SAE
SAE
SAE
SAE
SAE
SAE
SAE
SAE
SAE
SAE
SAE
SAE
SAE
SAE
SAE
SAE
SAE
SAE
SAE
SAE
SAE
SAE
SAE
SAE
SAE
SAE
SAE
SAE
SAE
SAE
SAE
SAE
SAE
SAE
SAE
SAE
SAE
SAE
SAE
SAE
SAE
SAE
SAE
SAE
SAE
SAE
SAE
SAE
SAE
SAE
SAE
SAE
SAE
SAE
SAE
SAE
SAE
SAE
SAE
SAE
SAE
SAE
SAE
SAE
SAE
SAE
SAE
SAE
SAE
SAE
SAE
SAE
SAE
SAE
SAE
SAE
SAE
SAE
SAE
SAE
SAE
SAE
SAE
SAE
SAE
SAE
SAE
SAE
SAE
SAE
SAE
SAE
SAE
SAE
SAE
SAE
SAE
SAE
SAE
SAE
SAE
SAE
SAE
SAE
SAE
SAE
SAE
SAE
SAE
SAE
SAE
SAE
SAE
SAE
SAE
SAE
SAE
SAE
SAE
SAE
SAE
SAE
SAE
SAE
SAE
SAE
SAE
SAE
SAE
SAE
SAE
SAE
SAE
SAE
SAE
SAE
SAE
SAE
SAE
SAE
SAE
SAE
SAE
SAE
SAE
SAE
SAE
SAE
SAE
SAE
SAE
SAE
SAE
SAE
SAE
SAE
SAE
SAE
SAE
SAE
SAE
SAE
SAE
SAE
SAE
SAE
SAE
SAE
SAE
SAE
SAE
SAE
SAE
SAE
SAE
SAE
SAE
SAE
SAE
SAE
SAE
SAE
SAE
SAE
SAE
SAE
SAE
SAE
SAE
SAE
SAE
SAE
SAE
SAE
SAE
SAE
SAE
SAE
SAE
SAE
SAE
SAE
SAE
SAE
SAE
SAE
SAE
SAE
SAE
SAE
SAE
SAE
SAE
SAE
SAE
SAE
SAE
SAE
SAE
SAE
SAE
SAE
SAE
SAE
SAE
SAE
SAE
SAE
SAE
SAE
SAE
SAE
SAE
SAE
SAE
SAE
SAE
SAE
SAE
SAE
SAE
SAE
SAE
SAE
SAE
SAE
SAE
SAE
SAE
SAE
SAE
SAE
SAE
SAE
SAE
SAE
SAE
SAE
SAE
SAE
SAE
SAE
SAE
SAE
SAE
SAE
SAE
SAE
SAE
SAE
SAE
SAE
SAE
SAE
SAE
SAE
SAE
SAE
SAE
SAE
SAE
SAE
SAE
SAE
SAE
SAE
SAE
SAE
SAE
SAE
SAE
SAE
SAE
SAE
SAE
SAE
SAE
SAE
SAE
SAE
SAE
SAE
SAE
SAE
SAE
SAE
SAE
SAE
SAE
SAE
SAE
SAE
SAE
SAE
SAE
SAE
SAE
SAE
SAE
SAE
SAE
SAE
SAE
SAE
SAE
SAE
SAE
SAE
SAE
SAE
SAE
SAE
SAE
SAE
SAE
SAE
SAE
SAE
SAE
SAE
SAE
SAE
SAE
SAE
SAE
SAE
SAE
SAE
SAE
SAE
SAE
SAE
SAE
SAE
SAE
SAE
SAE
SAE
SAE
SAE
SAE
SAE
SAE
SAE
SAE
SAE
SAE
SAE
SAE
SAE
SAE
SAE
SAE
SAE
SAE
SAE
SAE
SAE
SAE
SAE
SAE
SAE
SAE
SAE
SAE
SAE
SAE
SAE
SAE
SAE
SAE
SAE
SAE
SAE
SAE
SAE
SAE
SAE
SAE
SAE
SAE
SAE
SAE
SAE
SAE
SAE
SAE
SAE
SAE
SAE
SAE
SAE
SAE
SAE
SAE
SAE
SAE
SAE
SAE
SAE
SAE
SAE
SAE
SAE
SAE
SAE
SAE
SAE
SAE
SAE
SAE
SAE
SAE
SAE
SAE
SAE
SAE
SAE
SAE
SAE
SAE
SAE
SAE
SAE
SAE
SAE
SAE
SAE
SAE
SAE
SAE
SAE
SAE
SAE
SAE
SAE
SAE
SAE
SAE
SAE
SAE
SAE
SAE
SAE
SAE
SAE
SAE
SAE
SAE
SAE
SAE
SAE
SAE
SAE
SAE
SAE
SAE
SAE
SAE
SAE
SAE
SAE
SAE
SAE
SAE
SAE
SAE
SAE
SAE
SAE
SAE
SAE
SAE
SAE
SAE
SAE
SAE
SAE
SAE
SAE
SAE
SAE
SAE
SAE
SAE
SAE
SAE
SAE
SAE
SAE
SAE
SAE
SAE
SAE
SAE
SAE
SAE
SAE
SAE
SAE
SAE
SAE
SAE
SAE
SAE
SAE
SAE
SAE
SAE
SAE
SAE
SAE
SAE
SAE
SAE
SAE
SAE
SAE
SAE
SAE
SAE
SAE
SAE
SAE
SAE
SAE
SAE
SAE
SAE
SAE
SAE
SAE
SAE
SAE
SAE
SAE
SAE
SAE
SAE
SAE
SAE
SAE
SAE
SAE
SAE
SAE
SAE
SAE
SAE
SAE
SAE
SAE
SAE
SAE
SAE
SAE
SAE
SAE
SAE
SAE
SAE
SAE
SAE
SAE
SAE
SAE
SAE
SAE
SAE
SAE
SAE
SAE
SAE
SAE
SAE
SAE
SAE
SAE
SAE
SAE
SAE
SAE
SAE
SAE
SAE
SAE
SAE
SAE
SAE
SAE
SAE
SAE
SAE
SAE
SAE
SAE
SAE
SAE
SAE
SAE
SAE
SAE
SAE
SAE
SAE
SAE
SAE
SAE
SAE
SAE
SAE
SAE
SAE
SAE
SAE
SAE
SAE
SAE
SAE
SAE
SAE
SAE
SAE
SAE
SAE
SAE
SAE
SAE
SAE
SAE
SAE
SAE
SAE
SAE
SAE
SAE
SAE
SAE
SAE
SAE
SAE
SAE
SAE
SAE
SAE
SAE
SAE
SAE
SAE
SAE
SAE
SAE
SAE
SAE
SAE
SAE
SAE
SAE
SAE
SAE
SAE
SAE
SAE
SAE
SAE
SAE
SAE
SAE
SAE
SAE
SAE
SAE
SAE
SAE
SAE
SAE
SAE
SAE
SAE
SAE
SAE
SAE
SAE
SAE
SAE
SAE
SAE
SAE
SAE
SAE
SAE
SAE
SAE
SAE
SAE
SAE
SAE
SAE
SAE
SAE
SAE
SAE
SAE
SAE
SAE
SAE
SAE
SAE
SAE
SAE
SAE
SAE
SAE
SAE
SAE
SAE
SAE
SAE
SAE
SAE
SAE
SAE
SAE
SAE
SAE
SAE
SAE
SAE
SAE
SAE
SAE
SAE
SAE
SAE
SAE
SAE
SAE
SAE
SAE
SAE
SAE
SAE
SAE
SAE
SAE
SAE
SAE
SAE
SAE
SAE
SAE
SAE
SAE
SAE
SAE
SAE
SAE
SAE
SAE
SAE
SAE
SAE
SAE
SAE
SAE
SAE
SAE
SAE
SAE
SAE
SAE
SAE
SAE
SAE
SAE
SAE
SAE
SAE
SAE
SAE
SAE
SAE
SAE
SAE
SAE
SAE
SAE
SAE
SAE
SAE
SAE
SAE
SAE
SAE
SAE
SAE
SAE
SAE
SAE
SAE
SAE
SAE
SAE
SAE
SAE
SAE
SAE
SAE
SAE
SAE
SAE
SAE
SAE
SAE
SAE
SAE
SAE
SAE
SAE
SAE
SAE
SAE
SAE
SAE
SAE
SAE
SAE
SAE
SAE
SAE
SAE
SAE
SAE
SAE
SAE
SAE
SAE
SAE
SAE
SAE
SAE
SAE
SAE
SAE
SAE
SAE
SAE
SAE
SAE
SAE
SAE
SAE
SAE
SAE
SAE
SAE
SAE
SAE
SAE
SAE
SAE
SAE
SAE
SAE
SAE
SAE
SAE
SAE
SAE
SAE
SAE
SAE
SAE
SAE
SAE
SAE
SAE
SAE
SAE
SAE
SAE
SAE
SAE
SAE
SAE
SAE
SAE
SAE
SAE
SAE
SAE
SAE
SAE
SAE
SAE
SAE
SAE
SAE
SAE
SAE
SAE
SAE
SAE
SAE
SAE
SAE
SAE
SAE
SAE
SAE
SAE
SAE
SAE
SAE
SAE
SAE
SAE
SAE
SAE
SAE
SAE
SAE
SAE
SAE
SAE
SAE
SAE
SAE
SAE
SAE
SAE
SAE
SAE
SAE
SAE
SAE
SAE
SAE
SAE
SAE
SAE
SAE
SAE
SAE
SAE
SAE
SAE
SAE
SAE
SAE
SAE
SAE
SAE
SAE
SAE
SAE
SAE
SAE
SAE
SAE
SAE
SAE
SAE
SAE
SAE
SAE
SAE
SAE
SAE
SAE
SAE
SAE
SAE
SAE
SAE
SAE
SAE
SAE
SAE
SAE
SAE
SAE
SAE
SAE
SAE
SAE
SAE
SAE
SAE
SAE
SAE
SAE
SAE
SAE
SAE
SAE
SAE
SAE
SAE
SAE
SAE
SAE
SAE
SAE
SAE
SAE
SAE
SAE
SAE
SAE
SAE
SAE
SAE
SAE
SAE
SAE
SAE
SAE
SAE
SAE
SAE
SAE
SAE
SAE
SAE
SAE
SAE
SAE
SAE
SAE
SAE
SAE
SAE
SAE
SAE
SAE
SAE
SAE
SAE
SAE
SAE
SAE
SAE
SAE
SAE
SAE
SAE
SAE
SAE
SAE
SAE
SAE
SAE
SAE
SAE
SAE
SAE
SAE
SAE
SAE
SAE
SAE
SAE
SAE
SAE
SAE
SAE
SAE
SAE
SAE
SAE
SAE
SAE
SAE
SAE
SAE
SAE
SAE
SAE
SAE
SAE
SAE
SAE
SAE
SAE
SAE
SAE
SAE
SAE
SAE
SAE
SAE
SAE
SAE
SAE
SAE
SAE
SAE
SAE
SAE
SAE
SAE
SAE
SAE
SAE
SAE
SAE
SAE
SAE
SAE
SAE
SAE
SAE
SAE
SAE
SAE
SAE
SAE
SAE
SAE
SAE
SAE
SAE
SAE
SAE
SAE
SAE
SAE
SAE
SAE
SAE
SAE
SAE
SAE
SAE
SAE
SAE
SAE
SAE
SAE
SAE
SAE
SAE
SAE
SAE
SAE
SAE
SAE
SAE
SAE
SAE
SAE
SAE
SAE
SAE
SAE
SAE
SAE
SAE
SAE
SAE
SAE
SAE
SAE
SAE
SAE
SAE
SAE
SAE
SAE
SAE
SAE
SAE
SAE
SAE
SAE
SAE
SAE
SAE
SAE
SAE
SAE
SAE
SAE
SAE
SAE
SAE
SAE
SAE
SAE
SAE
SAE
SAE
SAE
SAE
SAE
SAE
SAE
SAE
SAE
SAE
SAE
SAE
SAE
SAE
SAE
SAE
SAE
SAE
SAE
SAE
SAE
SAE
SAE
SAE
SAE
SAE
SAE
SAE
SAE
SAE
SAE
SAE
SAE
SAE
SAE
SAE
SAE
SAE
SAE
SAE
SAE
SAE
SAE
SAE
SAE
SAE
SAE
SAE
SAE
SAE
SAE
SAE
SAE
SAE
SAE
SAE
SAE
SAE
SAE
SAE
SAE
SAE
SAE
SAE
SAE
SAE
SAE
SAE
SAE
SAE
SAE
SAE
SAE
SAE
SAE
SAE
SAE
SAE
SAE
SAE
SAE
SAE
SAE
SAE
SAE
SAE
SAE
SAE
SAE
SAE
SAE
SAE
SAE
SAE
SAE
SAE
SAE
SAE
SAE
SAE
SAE
SAE
SAE
SAE
SAE
SAE
SAE
SAE
SAE
SAE
SAE
SAE
SAE
SAE
SAE
SAE
SAE
SAE
SAE
SAE
SAE
SAE
SAE
SAE
SAE
SAE
SAE
SAE
SAE
SAE
SAE
SAE
SAE
SAE
SAE
SAE
SAE
SAE
SAE
SAE
SAE
SAE
SAE
SAE
SAE
SAE
SAE
SAE
SAE
SAE
SAE
SAE
SAE
SAE
SAE
SAE
SAE
SAE
SAE
SAE
SAE
SAE
SAE
SAE
SAE
SAE
SAE
SAE
SAE
SAE
SAE
SAE
SAE
SAE
SAE
SAE
SAE
SAE
SAE
SAE
SAE
SAE
SAE
SAE
SAE
SAE
SAE
SAE
SAE
SAE
SAE
SAE
SAE
SAE
SAE
SAE
SAE
SAE
SAE
SAE
SAE
SAE
SAE
SAE
SAE
SAE
SAE
SAE
SAE
SAE
SAE
SAE
SAE
SAE
SAE
SAE
SAE
SAE
SAE
SAE
SAE
SAE
SAE
SAE
SAE
SAE
SAE
SAE
SAE
SAE
SAE
SAE
SAE
SAE
SAE
SAE
SAE
SAE
SAE
SAE
SAE
SAE
SAE
SAE
SAE
SAE
SAE
SAE
SAE
SAE
SAE
SAE
SAE
SAE
SAE
SAE
SAE
SAE
SAE
SAE
SAE
SAE
SAE
SAE
SAE
SAE
SAE
SAE
SAE
SAE
SAE
SAE
SAE
SAE
SAE
SAE
SAE
SAE
SAE
SAE
SAE
SAE
SAE
SAE
SAE
SAE
SAE
SAE
SAE
SAE
SAE
SAE
SAE
SAE
SAE
SAE
SAE
SAE
SAE
SAE
SAE
SAE
SAE
SAE
SAE
SAE
SAE
SAE
SAE
SAE
SAE
SAE
SAE
SAE
SAE
SAE
SAE
SAE
SAE
SAE
SAE
SAE
SAE
SAE
SAE
SAE
SAE
SAE
SAE
SAE
SAE
SAE
SAE
SAE
SAE
SAE
SAE
SAE
SAE
SAE
SAE
SAE
SAE
SAE
SAE
SAE
SAE
[    _ERROR] check_hit invalid set index: 229614 NUM_SET: 0 address: 1c0777 full_addr: 701ddc0 event: 49463420
bimodal-ipcp-ipcp-no-hawkeye-0-1-1-3-0-1-8core_6_2_GLRU: src/cache.cc:2704: int CACHE::check_hit(PACKET*, uint32_t): Assertion `0' failed.
