
*** ChampSim Multicore Out-of-Order Simulator ***

Warmup Instructions: 50000000
Simulation Instructions: 200000000
Number of CPUs: 8
threads:1

L1I Configuration:
L1I_SET:64
L1I_WAY:8
L1I_RQ_SIZE:64
L1I_WQ_SIZE:64
L1I_PQ_SIZE:8
L1I_MSHR_SIZE:8

L1D Configuration:
L1D_SET:64
L1D_WAY:12
L1D_RQ_SIZE:64
L1D_WQ_SIZE:64
L1D_PQ_SIZE:8
L1D_MSHR_SIZE:16

L2C Configuration:
L2C_SET:1024
L2C_WAY:8
L2C_RQ_SIZE:32
L2C_WQ_SIZE:32
L2C_PQ_SIZE:16
L2C_MSHR_SIZE:32

LLC Configuration:
LLC_SET:2048
LLC_WAY:12
LLC SLICES:8
LLC_RQ_SIZE:64
LLC_WQ_SIZE:64
LLC_PQ_SIZE:32
LLC_MSHR_SIZE:64

Interconnect OFF
Attacker deprioritize is: OFF
Off-chip DRAM Size: 8192 MB Channels: 2 Width: 64-bit Data Rate: 3200 MT/s
PAGE SIZE in KB: 4.000000 
PAGE SIZE in MB: 0.003906 
PAGE offset in bits: 12 
CEASER-S_LLC:0
MIRAGE : 1
CEASER_LATENCY:3
REMAP : OFF
Partitions : 1
Multi-Step : OFF
BFS : OFF

CPU 0 runs /home/bhavsar/USENIX/perf/maya-cache/performance-analysis/GLRU-mirage/../../../../../spec/628.pop2_s-17B.champsimtrace.xz
CPU 1 runs /home/bhavsar/USENIX/perf/maya-cache/performance-analysis/GLRU-mirage/../../../../../spec/628.pop2_s-17B.champsimtrace.xz
CPU 2 runs /home/bhavsar/USENIX/perf/maya-cache/performance-analysis/GLRU-mirage/../../../../../spec/628.pop2_s-17B.champsimtrace.xz
CPU 3 runs /home/bhavsar/USENIX/perf/maya-cache/performance-analysis/GLRU-mirage/../../../../../spec/628.pop2_s-17B.champsimtrace.xz
CPU 4 runs /home/bhavsar/USENIX/perf/maya-cache/performance-analysis/GLRU-mirage/../../../../../spec/628.pop2_s-17B.champsimtrace.xz
CPU 5 runs /home/bhavsar/USENIX/perf/maya-cache/performance-analysis/GLRU-mirage/../../../../../spec/628.pop2_s-17B.champsimtrace.xz
CPU 6 runs /home/bhavsar/USENIX/perf/maya-cache/performance-analysis/GLRU-mirage/../../../../../spec/628.pop2_s-17B.champsimtrace.xz
CPU 7 runs /home/bhavsar/USENIX/perf/maya-cache/performance-analysis/GLRU-mirage/../../../../../spec/628.pop2_s-17B.champsimtrace.xz
CPU 0 Bimodal branch predictor
Initialize Hawkeye state
Initialize Hawkeye state
Initialize Hawkeye state
Initialize Hawkeye state
Initialize Hawkeye state
Initialize Hawkeye state
Initialize Hawkeye state
Initialize Hawkeye state
CPU 1 Bimodal branch predictor
Initialize Hawkeye state
Initialize Hawkeye state
Initialize Hawkeye state
Initialize Hawkeye state
Initialize Hawkeye state
Initialize Hawkeye state
Initialize Hawkeye state
Initialize Hawkeye state
CPU 2 Bimodal branch predictor
Initialize Hawkeye state
Initialize Hawkeye state
Initialize Hawkeye state
Initialize Hawkeye state
Initialize Hawkeye state
Initialize Hawkeye state
Initialize Hawkeye state
Initialize Hawkeye state
CPU 3 Bimodal branch predictor
Initialize Hawkeye state
Initialize Hawkeye state
Initialize Hawkeye state
Initialize Hawkeye state
Initialize Hawkeye state
Initialize Hawkeye state
Initialize Hawkeye state
Initialize Hawkeye state
CPU 4 Bimodal branch predictor
Initialize Hawkeye state
Initialize Hawkeye state
Initialize Hawkeye state
Initialize Hawkeye state
Initialize Hawkeye state
Initialize Hawkeye state
Initialize Hawkeye state
Initialize Hawkeye state
CPU 5 Bimodal branch predictor
Initialize Hawkeye state
Initialize Hawkeye state
Initialize Hawkeye state
Initialize Hawkeye state
Initialize Hawkeye state
Initialize Hawkeye state
Initialize Hawkeye state
Initialize Hawkeye state
CPU 6 Bimodal branch predictor
Initialize Hawkeye state
Initialize Hawkeye state
Initialize Hawkeye state
Initialize Hawkeye state
Initialize Hawkeye state
Initialize Hawkeye state
Initialize Hawkeye state
Initialize Hawkeye state
CPU 7 Bimodal branch predictor
Initialize Hawkeye state
Initialize Hawkeye state
Initialize Hawkeye state
Initialize Hawkeye state
Initialize Hawkeye state
Initialize Hawkeye state
Initialize Hawkeye state
Initialize Hawkeye state
SAE
SAE
SAE
SAE
SAE
SAE
SAE
SAE
SAE
SAE
SAE
SAE
SAE
SAE
SAE
SAE
SAE
SAE
SAE
SAE
SAE
SAE
SAE
SAE
SAE
SAE
SAE
SAE
SAE
SAE
SAE
SAE
SAE
SAE
SAE
SAE
SAE
SAE
SAE
SAE
SAE
SAE
SAE
SAE
SAE
SAE
SAE
SAE
SAE
SAE
SAE
SAE
SAE
SAE
SAE
SAE
SAE
SAE
SAE
SAE
SAE
SAE
SAE
SAE
SAE
SAE
SAE
SAE
SAE
SAE
SAE
SAE
SAE
SAE
SAE
SAE
SAE
SAE
SAE
SAE
SAE
SAE
SAE
SAE
SAE
SAE
SAE
SAE
SAE
SAE
SAE
SAE
SAE
SAE
SAE
SAE
SAE
SAE
SAE
SAE
SAE
SAE
SAE
SAE
SAE
SAE
SAE
SAE
SAE
SAE
SAE
SAE
SAE
SAE
SAE
SAE
SAE
SAE
SAE
SAE
SAE
SAE
SAE
SAE
SAE
SAE
SAE
SAE
SAE
SAE
SAE
SAE
SAE
SAE
SAE
SAE
SAE
SAE
SAE
SAE
SAE
SAE
SAE
SAE
SAE
SAE
SAE
SAE
SAE
SAE
SAE
SAE
SAE
SAE
SAE
SAE
SAE
SAE
SAE
SAE
SAE
SAE
SAE
SAE
SAE
SAE
SAE
SAE
SAE
SAE
SAE
SAE
SAE
SAE
SAE
SAE
SAE
SAE
SAE
SAE
SAE
SAE
SAE
SAE
SAE
SAE
SAE
SAE
SAE
SAE
SAE
SAE
SAE
SAE
SAE
SAE
SAE
SAE
SAE
SAE
SAE
SAE
SAE
SAE
SAE
SAE
SAE
SAE
SAE
SAE
SAE
SAE
SAE
SAE
SAE
SAE
SAE
SAE
SAE
SAE
SAE
SAE
SAE
SAE
SAE
SAE
SAE
SAE
SAE
SAE
SAE
SAE
SAE
SAE
SAE
SAE
SAE
SAE
SAE
SAE
SAE
SAE
SAE
SAE
SAE
SAE
SAE
SAE
SAE
SAE
SAE
SAE
SAE
SAE
SAE
SAE
SAE
SAE
SAE
SAE
SAE
SAE
SAE
SAE
SAE
SAE
SAE
SAE
SAE
SAE
SAE
SAE
SAE
SAE
SAE
SAE
SAE
SAE
SAE
SAE
SAE
SAE
SAE
SAE
SAE
SAE
SAE
SAE
SAE
SAE
SAE
SAE
SAE
SAE
SAE
SAE
SAE
SAE
SAE
SAE
SAE
SAE
SAE
SAE
SAE
SAE
SAE
SAE
SAE
SAE
SAE
SAE
SAE
SAE
SAE
SAE
SAE
SAE
SAE
SAE
SAE
SAE
SAE
SAE
SAE
SAE
SAE
SAE
SAE
SAE
SAE
SAE
SAE
SAE
SAE
SAE
SAE
SAE
SAE
SAE
SAE
SAE
SAE
SAE
SAE
SAE
SAE
SAE
SAE
SAE
SAE
SAE
SAE
SAE
SAE
SAE
SAE
SAE
SAE
SAE
SAE
SAE
SAE
SAE
SAE
SAE
SAE
SAE
SAE
SAE
SAE
SAE
SAE
SAE
SAE
SAE
SAE
SAE
SAE
SAE
SAE
SAE
SAE
SAE
SAE
SAE
SAE
SAE
SAE
SAE
SAE
SAE
SAE
SAE
SAE
SAE
SAE
SAE
SAE
SAE
SAE
SAE
SAE
SAE
SAE
SAE
SAE
SAE
SAE
SAE
SAE
SAE
SAE
SAE
SAE
SAE
SAE
SAE
SAE
SAE
SAE
SAE
SAE
SAE
SAE
SAE
SAE
SAE
SAE
SAE
SAE
SAE
SAE
SAE
SAE
SAE
SAE
SAE
SAE
SAE
SAE
SAE
SAE
SAE
SAE
SAE
SAE
SAE
SAE
SAE
SAE
SAE
SAE
SAE
SAE
SAE
SAE
SAE
SAE
SAE
SAE
SAE
SAE
SAE
SAE
SAE
SAE
SAE
SAE
SAE
SAE
SAE
SAE
SAE
SAE
SAE
SAE
SAE
SAE
SAE
SAE
SAE
SAE
SAE
SAE
SAE
SAE
SAE
SAE
SAE
SAE
SAE
SAE
SAE
SAE
SAE
SAE
SAE
SAE
SAE
SAE
SAE
SAE
SAE
SAE
SAE
SAE
SAE
SAE
SAE
SAE
SAE
SAE
SAE
SAE
SAE
SAE
SAE
SAE
SAE
SAE
SAE
SAE
SAE
SAE
SAE
SAE
SAE
SAE
SAE
SAE
SAE
SAE
SAE
SAE
SAE
SAE
SAE
SAE
SAE
SAE
SAE
SAE
SAE
SAE
SAE
SAE
SAE
SAE
SAE
SAE
SAE
SAE
SAE
SAE
SAE
SAE
SAE
SAE
SAE
SAE
SAE
SAE
SAE
SAE
SAE
SAE
SAE
SAE
SAE
SAE
SAE
SAE
SAE
SAE
SAE
SAE
SAE
SAE
SAE
SAE
SAE
SAE
SAE
SAE
SAE
SAE
SAE
SAE
SAE
SAE
SAE
SAE
SAE
SAE
SAE
SAE
SAE
SAE
SAE
SAE
SAE
SAE
SAE
SAE
SAE
SAE
SAE
SAE
SAE
SAE
SAE
SAE
SAE
SAE
SAE
SAE
SAE
SAE
SAE
SAE
SAE
SAE
SAE
SAE
SAE
SAE
SAE
SAE
SAE
SAE
SAE
SAE
SAE
SAE
SAE
SAE
SAE
SAE
SAE
SAE
SAE
SAE
SAE
SAE
SAE
SAE
SAE
SAE
SAE
SAE
SAE
SAE
SAE
SAE
SAE
SAE
SAE
SAE
SAE
SAE
SAE
SAE
SAE
SAE
SAE
SAE
SAE
SAE
SAE
SAE
SAE
SAE
SAE
SAE
SAE
SAE
SAE
SAE
SAE
SAE
SAE
SAE
SAE
SAE
SAE
SAE
SAE
SAE
SAE
SAE
SAE
SAE
SAE
SAE
SAE
SAE
SAE
SAE
SAE
SAE
SAE
SAE
SAE
SAE
SAE
SAE
SAE
SAE
SAE
SAE
SAE
SAE
SAE
SAE
SAE
SAE
SAE
SAE
SAE
SAE
SAE
SAE
SAE
SAE
SAE
SAE
SAE
SAE
SAE
SAE
SAE
SAE
SAE
SAE
SAE
SAE
SAE
SAE
SAE
SAE
SAE
SAE
SAE
SAE
SAE
SAE
SAE
SAE
SAE
SAE
SAE
SAE
SAE
SAE
SAE
SAE
SAE
SAE
SAE
SAE
SAE
SAE
SAE
SAE
SAE
SAE
SAE
SAE
SAE
SAE
SAE
SAE
SAE
SAE
SAE
SAE
SAE
SAE
SAE
SAE
SAE
SAE
SAE
SAE
SAE
SAE
SAE
SAE
SAE
SAE
SAE
SAE
SAE
SAE
SAE
SAE
SAE
SAE
SAE
SAE
SAE
SAE
SAE
SAE
SAE
SAE
SAE
SAE
SAE
SAE
SAE
SAE
SAE
SAE
SAE
SAE
SAE
SAE
SAE
SAE
SAE
SAE
SAE
SAE
SAE
SAE
SAE
SAE
SAE
SAE
SAE
SAE
SAE
SAE
SAE
SAE
SAE
SAE
SAE
SAE
SAE
SAE
SAE
SAE
SAE
SAE
SAE
SAE
SAE
SAE
SAE
SAE
SAE
SAE
SAE
SAE
SAE
SAE
SAE
SAE
SAE
Heartbeat CPU 3 instructions: 10000002 cycles: 4455949 heartbeat IPC: 2.24419 cumulative IPC: 2.24419 (Simulation time: 0 hr 12 min 24 sec) 
 Total Blocks : 196608 Invalid Blocks : 596
Heartbeat CPU 1 instructions: 10000002 cycles: 4456103 heartbeat IPC: 2.24411 cumulative IPC: 2.24411 (Simulation time: 0 hr 12 min 24 sec) 
 Total Blocks : 196608 Invalid Blocks : 596
Heartbeat CPU 2 instructions: 10000002 cycles: 4456150 heartbeat IPC: 2.24409 cumulative IPC: 2.24409 (Simulation time: 0 hr 12 min 24 sec) 
 Total Blocks : 196608 Invalid Blocks : 596
Heartbeat CPU 0 instructions: 10000002 cycles: 4456180 heartbeat IPC: 2.24408 cumulative IPC: 2.24408 (Simulation time: 0 hr 12 min 24 sec) 
 Total Blocks : 196608 Invalid Blocks : 596
Heartbeat CPU 4 instructions: 10000002 cycles: 4456192 heartbeat IPC: 2.24407 cumulative IPC: 2.24407 (Simulation time: 0 hr 12 min 24 sec) 
 Total Blocks : 196608 Invalid Blocks : 596
Heartbeat CPU 5 instructions: 10000002 cycles: 4456441 heartbeat IPC: 2.24394 cumulative IPC: 2.24394 (Simulation time: 0 hr 12 min 24 sec) 
 Total Blocks : 196608 Invalid Blocks : 596
Heartbeat CPU 7 instructions: 10000002 cycles: 4456507 heartbeat IPC: 2.24391 cumulative IPC: 2.24391 (Simulation time: 0 hr 12 min 24 sec) 
 Total Blocks : 196608 Invalid Blocks : 596
Heartbeat CPU 6 instructions: 10000002 cycles: 4456638 heartbeat IPC: 2.24384 cumulative IPC: 2.24384 (Simulation time: 0 hr 12 min 24 sec) 
 Total Blocks : 196608 Invalid Blocks : 596
SAE
SAE
SAE
SAE
SAE
SAE
SAE
SAE
SAE
SAE
SAE
SAE
SAE
SAE
SAE
SAE
SAE
SAE
SAE
SAE
SAE
SAE
SAE
SAE
SAE
SAE
SAE
SAE
SAE
SAE
SAE
SAE
SAE
SAE
SAE
SAE
SAE
SAE
SAE
SAE
SAE
SAE
SAE
SAE
SAE
SAE
SAE
SAE
SAE
SAE
SAE
SAE
SAE
SAE
SAE
SAE
SAE
SAE
SAE
SAE
SAE
SAE
SAE
SAE
SAE
SAE
SAE
SAE
SAE
SAE
SAE
SAE
SAE
SAE
SAE
SAE
SAE
SAE
SAE
SAE
SAE
SAE
SAE
SAE
SAE
SAE
SAE
SAE
SAE
SAE
SAE
SAE
SAE
SAE
SAE
SAE
SAE
SAE
SAE
SAE
SAE
SAE
SAE
SAE
SAE
SAE
SAE
SAE
SAE
SAE
SAE
SAE
SAE
SAE
SAE
SAE
SAE
SAE
SAE
SAE
SAE
SAE
SAE
SAE
SAE
SAE
SAE
SAE
SAE
SAE
SAE
SAE
SAE
SAE
SAE
SAE
SAE
SAE
SAE
SAE
SAE
SAE
SAE
SAE
SAE
SAE
SAE
SAE
SAE
SAE
SAE
SAE
SAE
SAE
SAE
SAE
SAE
SAE
SAE
SAE
SAE
SAE
SAE
SAE
SAE
SAE
SAE
SAE
SAE
SAE
SAE
SAE
SAE
SAE
SAE
SAE
SAE
SAE
SAE
SAE
SAE
SAE
SAE
SAE
SAE
SAE
SAE
SAE
SAE
SAE
SAE
SAE
SAE
SAE
SAE
SAE
SAE
SAE
SAE
SAE
SAE
SAE
SAE
SAE
SAE
SAE
SAE
SAE
SAE
SAE
SAE
SAE
SAE
SAE
SAE
SAE
SAE
SAE
SAE
SAE
SAE
SAE
SAE
SAE
SAE
SAE
SAE
SAE
SAE
SAE
SAE
SAE
SAE
SAE
SAE
SAE
SAE
SAE
SAE
SAE
SAE
SAE
SAE
SAE
SAE
SAE
SAE
SAE
SAE
SAE
SAE
SAE
SAE
SAE
SAE
SAE
SAE
SAE
SAE
SAE
SAE
SAE
SAE
SAE
SAE
SAE
SAE
SAE
SAE
SAE
SAE
SAE
SAE
SAE
SAE
SAE
SAE
SAE
SAE
SAE
SAE
SAE
SAE
SAE
SAE
SAE
SAE
SAE
SAE
SAE
SAE
SAE
SAE
SAE
SAE
SAE
SAE
SAE
SAE
SAE
SAE
SAE
SAE
SAE
SAE
SAE
SAE
SAE
SAE
SAE
SAE
SAE
SAE
SAE
SAE
SAE
SAE
SAE
SAE
SAE
SAE
SAE
SAE
SAE
SAE
SAE
SAE
SAE
SAE
SAE
SAE
SAE
SAE
SAE
SAE
SAE
SAE
SAE
SAE
SAE
SAE
SAE
SAE
SAE
SAE
SAE
SAE
SAE
SAE
SAE
SAE
SAE
SAE
SAE
SAE
SAE
SAE
SAE
SAE
SAE
SAE
SAE
SAE
SAE
SAE
SAE
SAE
SAE
SAE
SAE
SAE
SAE
SAE
SAE
SAE
SAE
SAE
SAE
SAE
SAE
SAE
SAE
SAE
SAE
SAE
SAE
SAE
SAE
SAE
SAE
SAE
SAE
SAE
SAE
SAE
SAE
SAE
SAE
SAE
SAE
SAE
SAE
SAE
SAE
SAE
SAE
SAE
SAE
SAE
SAE
SAE
SAE
SAE
SAE
SAE
SAE
SAE
SAE
SAE
SAE
SAE
SAE
SAE
SAE
SAE
SAE
SAE
SAE
SAE
SAE
SAE
SAE
SAE
SAE
SAE
SAE
SAE
SAE
SAE
SAE
SAE
SAE
SAE
SAE
SAE
SAE
SAE
SAE
SAE
SAE
SAE
SAE
SAE
SAE
SAE
SAE
SAE
SAE
SAE
SAE
SAE
SAE
SAE
SAE
SAE
SAE
SAE
SAE
SAE
SAE
SAE
SAE
SAE
SAE
SAE
SAE
SAE
SAE
SAE
SAE
SAE
SAE
SAE
SAE
SAE
SAE
SAE
SAE
SAE
SAE
SAE
SAE
SAE
SAE
SAE
SAE
SAE
SAE
SAE
SAE
SAE
SAE
SAE
SAE
SAE
SAE
SAE
SAE
SAE
SAE
SAE
SAE
SAE
SAE
SAE
SAE
SAE
SAE
SAE
SAE
SAE
SAE
SAE
SAE
SAE
SAE
SAE
SAE
SAE
SAE
SAE
SAE
SAE
SAE
SAE
SAE
SAE
SAE
SAE
SAE
SAE
SAE
SAE
SAE
SAE
SAE
SAE
SAE
SAE
SAE
SAE
SAE
SAE
SAE
SAE
SAE
SAE
SAE
SAE
SAE
SAE
SAE
SAE
SAE
SAE
SAE
SAE
SAE
SAE
SAE
SAE
SAE
SAE
SAE
SAE
SAE
SAE
SAE
SAE
SAE
SAE
SAE
SAE
SAE
SAE
SAE
SAE
SAE
SAE
SAE
SAE
SAE
SAE
SAE
SAE
SAE
SAE
SAE
SAE
SAE
SAE
SAE
SAE
SAE
SAE
SAE
SAE
SAE
SAE
SAE
SAE
SAE
SAE
SAE
SAE
SAE
SAE
SAE
SAE
SAE
SAE
SAE
SAE
SAE
SAE
SAE
SAE
SAE
SAE
SAE
SAE
SAE
SAE
SAE
SAE
SAE
SAE
SAE
SAE
SAE
SAE
SAE
SAE
SAE
SAE
SAE
SAE
SAE
SAE
SAE
SAE
SAE
SAE
SAE
SAE
SAE
SAE
SAE
SAE
SAE
SAE
SAE
SAE
SAE
SAE
SAE
SAE
SAE
SAE
SAE
SAE
SAE
SAE
SAE
SAE
SAE
SAE
SAE
SAE
SAE
SAE
SAE
SAE
SAE
SAE
SAE
SAE
SAE
SAE
SAE
SAE
SAE
SAE
SAE
SAE
SAE
SAE
SAE
SAE
SAE
SAE
SAE
SAE
SAE
SAE
SAE
SAE
SAE
SAE
SAE
SAE
SAE
SAE
SAE
SAE
SAE
SAE
SAE
SAE
SAE
SAE
SAE
SAE
SAE
SAE
SAE
SAE
SAE
SAE
SAE
SAE
SAE
SAE
SAE
SAE
SAE
SAE
SAE
SAE
SAE
SAE
SAE
SAE
SAE
SAE
SAE
SAE
SAE
SAE
SAE
SAE
SAE
SAE
SAE
SAE
SAE
SAE
SAE
SAE
SAE
SAE
SAE
SAE
SAE
SAE
SAE
SAE
SAE
SAE
SAE
SAE
SAE
SAE
SAE
SAE
SAE
SAE
SAE
SAE
SAE
SAE
SAE
SAE
SAE
SAE
SAE
SAE
SAE
SAE
SAE
SAE
SAE
SAE
SAE
SAE
SAE
SAE
SAE
SAE
SAE
SAE
SAE
SAE
SAE
SAE
SAE
SAE
SAE
SAE
SAE
SAE
SAE
SAE
SAE
SAE
SAE
SAE
SAE
SAE
SAE
SAE
SAE
SAE
SAE
SAE
SAE
SAE
SAE
SAE
SAE
SAE
SAE
SAE
SAE
SAE
SAE
SAE
SAE
SAE
SAE
SAE
SAE
SAE
SAE
SAE
SAE
SAE
SAE
SAE
SAE
SAE
SAE
SAE
SAE
SAE
SAE
SAE
SAE
SAE
SAE
SAE
SAE
SAE
SAE
SAE
SAE
SAE
SAE
SAE
SAE
SAE
SAE
SAE
SAE
SAE
SAE
SAE
SAE
SAE
SAE
SAE
SAE
SAE
SAE
SAE
SAE
SAE
SAE
SAE
SAE
SAE
SAE
SAE
SAE
SAE
SAE
SAE
SAE
SAE
SAE
SAE
SAE
SAE
SAE
SAE
SAE
SAE
SAE
SAE
SAE
SAE
SAE
SAE
SAE
SAE
SAE
SAE
SAE
SAE
SAE
SAE
SAE
SAE
SAE
SAE
SAE
SAE
SAE
SAE
SAE
SAE
SAE
SAE
SAE
SAE
SAE
SAE
SAE
SAE
SAE
SAE
SAE
SAE
SAE
SAE
SAE
SAE
SAE
SAE
SAE
SAE
SAE
SAE
SAE
SAE
SAE
SAE
SAE
SAE
SAE
SAE
SAE
SAE
SAE
SAE
SAE
SAE
SAE
SAE
SAE
SAE
SAE
SAE
SAE
SAE
SAE
SAE
SAE
SAE
SAE
SAE
SAE
SAE
SAE
SAE
SAE
SAE
SAE
SAE
SAE
SAE
SAE
SAE
SAE
SAE
SAE
SAE
SAE
SAE
SAE
SAE
SAE
SAE
SAE
SAE
SAE
SAE
SAE
SAE
SAE
SAE
SAE
SAE
SAE
SAE
SAE
SAE
SAE
SAE
SAE
SAE
SAE
SAE
SAE
SAE
SAE
SAE
SAE
SAE
SAE
SAE
SAE
SAE
SAE
SAE
SAE
SAE
SAE
SAE
SAE
SAE
SAE
SAE
SAE
SAE
SAE
SAE
SAE
SAE
SAE
SAE
SAE
SAE
SAE
SAE
SAE
SAE
SAE
SAE
SAE
SAE
SAE
SAE
SAE
SAE
SAE
SAE
SAE
SAE
SAE
SAE
SAE
SAE
SAE
SAE
SAE
SAE
SAE
SAE
SAE
SAE
SAE
SAE
SAE
SAE
SAE
SAE
SAE
SAE
SAE
SAE
SAE
SAE
SAE
SAE
SAE
SAE
SAE
SAE
SAE
SAE
SAE
SAE
SAE
SAE
SAE
SAE
SAE
SAE
SAE
SAE
SAE
SAE
SAE
SAE
SAE
SAE
SAE
SAE
SAE
SAE
SAE
SAE
SAE
SAE
SAE
SAE
SAE
SAE
SAE
SAE
SAE
SAE
SAE
SAE
SAE
SAE
SAE
SAE
SAE
SAE
SAE
SAE
SAE
SAE
SAE
SAE
SAE
SAE
SAE
SAE
SAE
SAE
SAE
SAE
SAE
SAE
SAE
SAE
SAE
SAE
SAE
SAE
SAE
SAE
SAE
SAE
SAE
SAE
SAE
SAE
SAE
SAE
SAE
SAE
SAE
SAE
SAE
SAE
SAE
SAE
SAE
SAE
SAE
SAE
SAE
SAE
SAE
SAE
SAE
SAE
SAE
SAE
SAE
SAE
SAE
SAE
SAE
SAE
SAE
SAE
SAE
SAE
SAE
SAE
SAE
SAE
SAE
SAE
SAE
SAE
SAE
SAE
SAE
SAE
SAE
SAE
SAE
SAE
SAE
SAE
SAE
SAE
SAE
SAE
SAE
SAE
SAE
SAE
SAE
SAE
SAE
SAE
SAE
SAE
SAE
SAE
SAE
SAE
SAE
SAE
SAE
SAE
SAE
SAE
SAE
SAE
SAE
SAE
SAE
SAE
SAE
SAE
SAE
SAE
SAE
SAE
SAE
SAE
SAE
SAE
SAE
SAE
SAE
SAE
SAE
SAE
SAE
SAE
SAE
SAE
SAE
SAE
SAE
SAE
SAE
SAE
SAE
SAE
SAE
SAE
SAE
SAE
SAE
SAE
SAE
SAE
SAE
SAE
SAE
SAE
SAE
SAE
SAE
SAE
SAE
SAE
SAE
SAE
SAE
SAE
SAE
SAE
SAE
SAE
SAE
SAE
SAE
SAE
SAE
SAE
SAE
SAE
SAE
SAE
SAE
SAE
SAE
SAE
SAE
SAE
SAE
SAE
SAE
SAE
SAE
SAE
SAE
SAE
SAE
SAE
SAE
SAE
SAE
SAE
SAE
SAE
SAE
SAE
SAE
SAE
SAE
SAE
SAE
SAE
SAE
SAE
SAE
SAE
SAE
SAE
SAE
SAE
SAE
SAE
SAE
SAE
SAE
SAE
SAE
SAE
SAE
SAE
SAE
SAE
SAE
SAE
SAE
SAE
SAE
SAE
SAE
SAE
SAE
SAE
SAE
SAE
SAE
SAE
SAE
SAE
SAE
SAE
SAE
SAE
SAE
SAE
SAE
SAE
SAE
SAE
SAE
SAE
SAE
SAE
SAE
SAE
SAE
SAE
SAE
SAE
SAE
SAE
SAE
SAE
SAE
SAE
SAE
SAE
SAE
SAE
SAE
SAE
SAE
SAE
SAE
SAE
SAE
SAE
SAE
SAE
SAE
SAE
SAE
SAE
SAE
SAE
SAE
SAE
SAE
SAE
SAE
SAE
SAE
SAE
SAE
SAE
SAE
SAE
SAE
SAE
SAE
SAE
SAE
SAE
SAE
SAE
SAE
SAE
SAE
SAE
SAE
SAE
SAE
SAE
SAE
SAE
SAE
SAE
SAE
SAE
SAE
SAE
SAE
SAE
SAE
SAE
SAE
SAE
SAE
SAE
SAE
SAE
SAE
SAE
SAE
SAE
SAE
SAE
SAE
SAE
SAE
SAE
SAE
SAE
SAE
SAE
SAE
SAE
SAE
SAE
SAE
SAE
SAE
SAE
SAE
SAE
SAE
SAE
SAE
SAE
SAE
SAE
SAE
SAE
SAE
SAE
SAE
SAE
SAE
SAE
SAE
SAE
SAE
SAE
SAE
SAE
SAE
SAE
SAE
SAE
SAE
SAE
SAE
SAE
SAE
SAE
SAE
SAE
SAE
SAE
SAE
SAE
SAE
SAE
SAE
SAE
SAE
SAE
SAE
SAE
SAE
SAE
SAE
SAE
SAE
SAE
SAE
SAE
SAE
SAE
SAE
SAE
SAE
SAE
SAE
SAE
SAE
SAE
SAE
SAE
SAE
SAE
SAE
SAE
SAE
SAE
SAE
SAE
SAE
SAE
SAE
SAE
SAE
SAE
SAE
SAE
SAE
SAE
SAE
SAE
SAE
SAE
SAE
SAE
SAE
SAE
SAE
SAE
SAE
SAE
SAE
SAE
SAE
SAE
SAE
SAE
SAE
SAE
SAE
SAE
SAE
SAE
SAE
SAE
SAE
SAE
SAE
SAE
SAE
SAE
SAE
SAE
SAE
SAE
SAE
SAE
SAE
SAE
SAE
SAE
SAE
SAE
SAE
SAE
SAE
SAE
SAE
SAE
SAE
SAE
SAE
SAE
SAE
SAE
SAE
SAE
SAE
SAE
SAE
SAE
SAE
SAE
SAE
SAE
SAE
SAE
SAE
SAE
SAE
SAE
SAE
SAE
SAE
SAE
SAE
SAE
SAE
SAE
SAE
SAE
SAE
SAE
SAE
SAE
SAE
SAE
SAE
SAE
SAE
SAE
SAE
SAE
SAE
SAE
SAE
SAE
SAE
SAE
SAE
SAE
SAE
SAE
SAE
SAE
SAE
SAE
SAE
SAE
SAE
SAE
SAE
SAE
SAE
SAE
SAE
SAE
SAE
SAE
SAE
SAE
SAE
SAE
SAE
SAE
SAE
SAE
SAE
SAE
SAE
SAE
SAE
SAE
SAE
SAE
SAE
SAE
SAE
SAE
SAE
SAE
SAE
SAE
SAE
SAE
SAE
SAE
SAE
SAE
SAE
SAE
SAE
SAE
SAE
SAE
SAE
SAE
SAE
SAE
SAE
SAE
SAE
SAE
SAE
SAE
SAE
SAE
SAE
SAE
SAE
SAE
SAE
SAE
SAE
SAE
SAE
SAE
SAE
SAE
SAE
SAE
SAE
SAE
SAE
SAE
SAE
SAE
SAE
SAE
SAE
SAE
SAE
SAE
SAE
SAE
SAE
SAE
SAE
SAE
SAE
SAE
SAE
SAE
SAE
SAE
SAE
SAE
SAE
SAE
SAE
SAE
SAE
SAE
SAE
SAE
SAE
SAE
SAE
SAE
SAE
SAE
SAE
SAE
SAE
SAE
SAE
SAE
SAE
SAE
SAE
SAE
SAE
SAE
SAE
SAE
SAE
SAE
SAE
SAE
SAE
SAE
SAE
SAE
SAE
SAE
SAE
SAE
SAE
SAE
SAE
SAE
SAE
SAE
SAE
SAE
SAE
SAE
SAE
SAE
SAE
SAE
SAE
SAE
SAE
SAE
SAE
SAE
SAE
SAE
SAE
SAE
SAE
SAE
SAE
SAE
SAE
SAE
SAE
SAE
SAE
SAE
SAE
SAE
SAE
SAE
SAE
SAE
SAE
SAE
SAE
SAE
SAE
SAE
SAE
SAE
SAE
SAE
SAE
SAE
SAE
SAE
SAE
SAE
SAE
SAE
SAE
SAE
SAE
SAE
SAE
SAE
SAE
SAE
SAE
SAE
SAE
SAE
SAE
SAE
SAE
SAE
SAE
SAE
SAE
SAE
SAE
SAE
SAE
SAE
SAE
SAE
SAE
SAE
SAE
SAE
SAE
SAE
SAE
SAE
SAE
SAE
SAE
SAE
SAE
SAE
SAE
SAE
SAE
SAE
SAE
SAE
SAE
SAE
SAE
SAE
SAE
SAE
SAE
SAE
SAE
SAE
SAE
SAE
SAE
SAE
SAE
SAE
SAE
SAE
SAE
SAE
SAE
SAE
SAE
SAE
SAE
SAE
SAE
SAE
SAE
SAE
SAE
SAE
SAE
SAE
SAE
SAE
SAE
SAE
SAE
SAE
SAE
SAE
SAE
SAE
SAE
SAE
SAE
SAE
SAE
SAE
SAE
SAE
SAE
SAE
SAE
SAE
SAE
SAE
SAE
SAE
SAE
SAE
SAE
SAE
SAE
SAE
SAE
SAE
SAE
SAE
SAE
SAE
SAE
SAE
SAE
SAE
SAE
SAE
SAE
SAE
SAE
SAE
SAE
SAE
SAE
SAE
SAE
SAE
SAE
SAE
SAE
SAE
SAE
SAE
SAE
SAE
SAE
SAE
SAE
SAE
SAE
SAE
SAE
SAE
SAE
SAE
SAE
SAE
SAE
SAE
SAE
SAE
SAE
SAE
SAE
SAE
SAE
SAE
SAE
SAE
SAE
SAE
SAE
SAE
SAE
SAE
SAE
SAE
SAE
SAE
SAE
SAE
SAE
SAE
SAE
SAE
SAE
SAE
SAE
SAE
SAE
SAE
SAE
SAE
SAE
SAE
SAE
SAE
SAE
SAE
SAE
SAE
SAE
SAE
Heartbeat CPU 3 instructions: 20000003 cycles: 8887468 heartbeat IPC: 2.25656 cumulative IPC: 2.25036 (Simulation time: 0 hr 19 min 11 sec) 
 Total Blocks : 196608 Invalid Blocks : 654
Heartbeat CPU 2 instructions: 20000003 cycles: 8888069 heartbeat IPC: 2.25636 cumulative IPC: 2.25021 (Simulation time: 0 hr 19 min 11 sec) 
 Total Blocks : 196608 Invalid Blocks : 654
Heartbeat CPU 1 instructions: 20000003 cycles: 8888112 heartbeat IPC: 2.25631 cumulative IPC: 2.2502 (Simulation time: 0 hr 19 min 11 sec) 
 Total Blocks : 196608 Invalid Blocks : 654
Heartbeat CPU 0 instructions: 20000003 cycles: 8888174 heartbeat IPC: 2.25632 cumulative IPC: 2.25018 (Simulation time: 0 hr 19 min 11 sec) 
 Total Blocks : 196608 Invalid Blocks : 654
Heartbeat CPU 4 instructions: 20000003 cycles: 8888225 heartbeat IPC: 2.2563 cumulative IPC: 2.25017 (Simulation time: 0 hr 19 min 11 sec) 
 Total Blocks : 196608 Invalid Blocks : 654
Heartbeat CPU 5 instructions: 20000003 cycles: 8888620 heartbeat IPC: 2.25623 cumulative IPC: 2.25007 (Simulation time: 0 hr 19 min 12 sec) 
 Total Blocks : 196608 Invalid Blocks : 654
Heartbeat CPU 6 instructions: 20000003 cycles: 8888851 heartbeat IPC: 2.25621 cumulative IPC: 2.25001 (Simulation time: 0 hr 19 min 12 sec) 
 Total Blocks : 196608 Invalid Blocks : 654
Heartbeat CPU 7 instructions: 20000003 cycles: 8888957 heartbeat IPC: 2.25609 cumulative IPC: 2.24998 (Simulation time: 0 hr 19 min 12 sec) 
 Total Blocks : 196608 Invalid Blocks : 654
SAE
SAE
SAE
SAE
SAE
SAE
SAE
SAE
SAE
SAE
SAE
SAE
SAE
SAE
SAE
SAE
SAE
SAE
SAE
SAE
SAE
SAE
SAE
SAE
SAE
SAE
SAE
SAE
SAE
SAE
SAE
SAE
SAE
SAE
SAE
SAE
SAE
SAE
SAE
SAE
SAE
SAE
SAE
SAE
SAE
SAE
SAE
SAE
SAE
SAE
SAE
SAE
SAE
SAE
SAE
SAE
SAE
SAE
SAE
SAE
SAE
SAE
SAE
SAE
SAE
SAE
SAE
SAE
SAE
SAE
SAE
SAE
SAE
SAE
SAE
SAE
SAE
SAE
SAE
SAE
SAE
SAE
SAE
SAE
SAE
SAE
SAE
SAE
SAE
SAE
SAE
SAE
SAE
SAE
SAE
SAE
SAE
SAE
SAE
SAE
SAE
SAE
SAE
SAE
SAE
SAE
SAE
SAE
SAE
SAE
SAE
SAE
SAE
SAE
SAE
SAE
SAE
SAE
SAE
SAE
SAE
SAE
SAE
SAE
SAE
SAE
SAE
SAE
SAE
SAE
SAE
SAE
SAE
SAE
SAE
SAE
SAE
SAE
SAE
SAE
SAE
SAE
SAE
SAE
SAE
SAE
SAE
SAE
SAE
SAE
SAE
SAE
SAE
SAE
SAE
SAE
SAE
SAE
SAE
SAE
SAE
SAE
SAE
SAE
SAE
SAE
SAE
SAE
SAE
SAE
SAE
SAE
SAE
SAE
SAE
SAE
SAE
SAE
SAE
SAE
SAE
SAE
SAE
SAE
SAE
SAE
SAE
SAE
SAE
SAE
SAE
SAE
SAE
SAE
SAE
SAE
SAE
SAE
SAE
SAE
SAE
SAE
SAE
SAE
SAE
SAE
SAE
SAE
SAE
SAE
SAE
SAE
SAE
SAE
SAE
SAE
SAE
SAE
SAE
SAE
SAE
SAE
SAE
SAE
SAE
SAE
SAE
SAE
SAE
SAE
SAE
SAE
SAE
SAE
SAE
SAE
SAE
SAE
SAE
SAE
SAE
SAE
SAE
SAE
SAE
SAE
SAE
SAE
SAE
SAE
SAE
SAE
SAE
SAE
SAE
SAE
SAE
SAE
SAE
SAE
SAE
SAE
SAE
SAE
SAE
SAE
SAE
SAE
SAE
SAE
SAE
SAE
SAE
SAE
SAE
SAE
SAE
SAE
SAE
SAE
SAE
SAE
SAE
SAE
SAE
SAE
SAE
SAE
SAE
SAE
SAE
SAE
SAE
SAE
SAE
SAE
SAE
SAE
SAE
SAE
SAE
SAE
SAE
SAE
SAE
SAE
SAE
SAE
SAE
SAE
SAE
SAE
SAE
SAE
SAE
SAE
SAE
SAE
SAE
SAE
SAE
SAE
SAE
SAE
SAE
SAE
SAE
SAE
SAE
SAE
SAE
SAE
SAE
SAE
SAE
SAE
SAE
SAE
SAE
SAE
SAE
SAE
SAE
SAE
SAE
SAE
SAE
SAE
SAE
SAE
SAE
SAE
SAE
SAE
SAE
SAE
SAE
SAE
SAE
SAE
SAE
SAE
SAE
SAE
SAE
SAE
SAE
SAE
SAE
SAE
SAE
SAE
SAE
SAE
SAE
SAE
SAE
SAE
SAE
SAE
SAE
SAE
SAE
SAE
SAE
SAE
SAE
SAE
SAE
SAE
SAE
SAE
SAE
SAE
SAE
SAE
SAE
SAE
SAE
SAE
SAE
SAE
SAE
SAE
SAE
SAE
SAE
SAE
SAE
SAE
SAE
SAE
SAE
SAE
SAE
SAE
SAE
SAE
SAE
SAE
SAE
SAE
SAE
SAE
SAE
SAE
SAE
SAE
SAE
SAE
SAE
SAE
SAE
SAE
SAE
SAE
SAE
SAE
SAE
SAE
SAE
SAE
SAE
SAE
SAE
SAE
SAE
SAE
SAE
SAE
SAE
SAE
SAE
SAE
SAE
SAE
SAE
SAE
SAE
SAE
SAE
SAE
SAE
SAE
SAE
SAE
SAE
SAE
SAE
SAE
SAE
SAE
SAE
SAE
SAE
SAE
SAE
SAE
SAE
SAE
SAE
SAE
SAE
SAE
SAE
SAE
SAE
SAE
SAE
SAE
SAE
SAE
SAE
SAE
SAE
SAE
SAE
SAE
SAE
SAE
SAE
SAE
SAE
SAE
SAE
SAE
SAE
SAE
SAE
SAE
SAE
SAE
SAE
SAE
SAE
SAE
SAE
SAE
SAE
SAE
SAE
SAE
SAE
SAE
SAE
SAE
SAE
SAE
SAE
SAE
SAE
SAE
SAE
SAE
SAE
SAE
SAE
SAE
SAE
SAE
SAE
SAE
SAE
SAE
SAE
SAE
SAE
SAE
SAE
SAE
SAE
SAE
SAE
SAE
SAE
SAE
SAE
SAE
SAE
SAE
SAE
SAE
SAE
SAE
SAE
SAE
SAE
SAE
SAE
SAE
SAE
SAE
SAE
SAE
SAE
SAE
SAE
SAE
SAE
SAE
SAE
SAE
SAE
SAE
SAE
SAE
SAE
SAE
SAE
SAE
SAE
SAE
SAE
SAE
SAE
SAE
SAE
SAE
SAE
SAE
SAE
SAE
SAE
SAE
SAE
SAE
SAE
SAE
SAE
SAE
SAE
SAE
SAE
SAE
SAE
SAE
SAE
SAE
SAE
SAE
SAE
SAE
SAE
SAE
SAE
SAE
SAE
SAE
SAE
SAE
SAE
SAE
SAE
SAE
SAE
SAE
SAE
SAE
SAE
SAE
SAE
SAE
SAE
SAE
SAE
SAE
SAE
SAE
SAE
SAE
SAE
SAE
SAE
SAE
SAE
SAE
SAE
SAE
SAE
SAE
SAE
SAE
SAE
SAE
SAE
SAE
SAE
SAE
SAE
SAE
SAE
SAE
SAE
SAE
SAE
SAE
SAE
SAE
SAE
SAE
SAE
SAE
SAE
SAE
SAE
SAE
SAE
SAE
SAE
SAE
SAE
SAE
SAE
SAE
SAE
SAE
SAE
SAE
SAE
SAE
SAE
SAE
SAE
SAE
SAE
SAE
SAE
SAE
SAE
SAE
SAE
SAE
SAE
SAE
SAE
SAE
SAE
SAE
SAE
SAE
SAE
SAE
SAE
SAE
SAE
SAE
SAE
SAE
SAE
SAE
SAE
SAE
SAE
SAE
SAE
SAE
SAE
SAE
SAE
SAE
SAE
SAE
SAE
SAE
SAE
SAE
SAE
SAE
SAE
SAE
SAE
SAE
SAE
SAE
SAE
SAE
SAE
SAE
SAE
SAE
SAE
SAE
SAE
SAE
SAE
SAE
SAE
SAE
SAE
SAE
SAE
SAE
SAE
SAE
SAE
SAE
SAE
SAE
SAE
SAE
SAE
SAE
SAE
SAE
SAE
SAE
SAE
SAE
SAE
SAE
SAE
SAE
SAE
SAE
SAE
SAE
SAE
SAE
SAE
SAE
SAE
SAE
SAE
SAE
SAE
SAE
SAE
SAE
SAE
SAE
SAE
SAE
SAE
SAE
SAE
SAE
SAE
SAE
SAE
SAE
SAE
SAE
SAE
SAE
SAE
SAE
SAE
SAE
SAE
SAE
SAE
SAE
SAE
SAE
SAE
SAE
SAE
SAE
SAE
SAE
SAE
SAE
SAE
SAE
SAE
SAE
SAE
SAE
SAE
SAE
SAE
SAE
SAE
SAE
SAE
SAE
SAE
SAE
SAE
SAE
SAE
SAE
SAE
SAE
SAE
SAE
SAE
SAE
SAE
SAE
SAE
SAE
SAE
SAE
SAE
SAE
SAE
SAE
SAE
SAE
SAE
SAE
SAE
SAE
SAE
SAE
SAE
SAE
SAE
SAE
SAE
SAE
SAE
SAE
SAE
SAE
SAE
SAE
SAE
SAE
SAE
SAE
SAE
SAE
SAE
SAE
SAE
SAE
SAE
SAE
SAE
SAE
SAE
SAE
SAE
SAE
SAE
SAE
SAE
SAE
SAE
SAE
SAE
SAE
SAE
SAE
SAE
SAE
SAE
SAE
SAE
SAE
SAE
SAE
SAE
SAE
SAE
SAE
SAE
SAE
SAE
SAE
SAE
SAE
SAE
SAE
SAE
SAE
SAE
SAE
SAE
SAE
SAE
SAE
SAE
SAE
SAE
SAE
SAE
SAE
SAE
SAE
SAE
SAE
SAE
SAE
SAE
SAE
SAE
SAE
SAE
SAE
SAE
SAE
SAE
SAE
SAE
SAE
SAE
SAE
SAE
SAE
SAE
SAE
SAE
SAE
SAE
SAE
SAE
SAE
SAE
SAE
SAE
SAE
SAE
SAE
SAE
SAE
SAE
SAE
SAE
SAE
SAE
SAE
SAE
SAE
SAE
SAE
SAE
SAE
SAE
SAE
SAE
SAE
SAE
SAE
SAE
SAE
SAE
SAE
SAE
SAE
SAE
SAE
SAE
SAE
SAE
SAE
SAE
SAE
SAE
SAE
SAE
SAE
SAE
SAE
SAE
SAE
SAE
SAE
SAE
SAE
SAE
SAE
SAE
SAE
SAE
SAE
SAE
SAE
SAE
SAE
SAE
SAE
SAE
SAE
SAE
SAE
SAE
SAE
SAE
SAE
SAE
SAE
SAE
SAE
SAE
SAE
SAE
SAE
SAE
SAE
SAE
SAE
SAE
SAE
SAE
SAE
SAE
SAE
SAE
SAE
SAE
SAE
SAE
SAE
SAE
SAE
SAE
SAE
SAE
SAE
SAE
SAE
SAE
SAE
SAE
SAE
SAE
SAE
SAE
SAE
SAE
SAE
SAE
SAE
SAE
SAE
SAE
SAE
SAE
SAE
SAE
SAE
SAE
SAE
SAE
SAE
SAE
SAE
SAE
SAE
SAE
SAE
SAE
SAE
SAE
SAE
SAE
SAE
SAE
SAE
SAE
SAE
SAE
SAE
SAE
SAE
SAE
SAE
SAE
SAE
SAE
SAE
SAE
SAE
SAE
SAE
SAE
SAE
SAE
SAE
SAE
SAE
SAE
SAE
SAE
SAE
SAE
SAE
SAE
SAE
SAE
SAE
SAE
SAE
SAE
SAE
SAE
SAE
SAE
SAE
SAE
SAE
SAE
SAE
SAE
SAE
SAE
SAE
SAE
SAE
SAE
SAE
SAE
SAE
SAE
SAE
SAE
SAE
SAE
SAE
SAE
SAE
SAE
SAE
SAE
SAE
SAE
SAE
SAE
SAE
SAE
SAE
SAE
SAE
SAE
SAE
SAE
SAE
SAE
SAE
SAE
SAE
SAE
SAE
SAE
SAE
SAE
SAE
SAE
SAE
SAE
SAE
SAE
SAE
SAE
SAE
SAE
SAE
SAE
SAE
SAE
SAE
SAE
SAE
SAE
SAE
SAE
SAE
SAE
SAE
SAE
SAE
SAE
SAE
SAE
SAE
SAE
SAE
SAE
SAE
SAE
SAE
SAE
SAE
SAE
SAE
SAE
SAE
SAE
SAE
SAE
SAE
SAE
SAE
SAE
SAE
SAE
SAE
SAE
SAE
SAE
SAE
SAE
SAE
SAE
SAE
SAE
SAE
SAE
SAE
SAE
SAE
SAE
SAE
SAE
SAE
SAE
SAE
SAE
SAE
SAE
SAE
SAE
SAE
SAE
SAE
SAE
SAE
SAE
SAE
SAE
SAE
SAE
SAE
SAE
SAE
SAE
SAE
SAE
SAE
SAE
SAE
SAE
SAE
SAE
SAE
SAE
SAE
SAE
SAE
SAE
SAE
SAE
SAE
SAE
SAE
SAE
SAE
SAE
SAE
SAE
SAE
SAE
SAE
SAE
SAE
SAE
SAE
SAE
SAE
SAE
SAE
SAE
SAE
SAE
SAE
SAE
SAE
SAE
SAE
SAE
SAE
SAE
SAE
SAE
SAE
SAE
SAE
SAE
SAE
SAE
SAE
SAE
SAE
SAE
SAE
SAE
SAE
SAE
SAE
SAE
SAE
SAE
SAE
SAE
SAE
SAE
SAE
SAE
SAE
SAE
SAE
SAE
SAE
SAE
SAE
SAE
SAE
SAE
SAE
SAE
SAE
SAE
SAE
SAE
SAE
SAE
SAE
SAE
SAE
SAE
SAE
SAE
SAE
SAE
SAE
SAE
SAE
SAE
SAE
SAE
SAE
SAE
SAE
SAE
SAE
SAE
SAE
SAE
SAE
SAE
SAE
SAE
SAE
SAE
SAE
SAE
SAE
SAE
SAE
SAE
SAE
SAE
SAE
SAE
SAE
SAE
SAE
SAE
SAE
SAE
SAE
SAE
SAE
SAE
SAE
SAE
SAE
SAE
SAE
SAE
SAE
SAE
SAE
SAE
SAE
SAE
SAE
SAE
SAE
SAE
SAE
SAE
SAE
SAE
SAE
SAE
SAE
SAE
SAE
SAE
SAE
SAE
SAE
SAE
SAE
SAE
SAE
SAE
SAE
SAE
SAE
SAE
SAE
SAE
SAE
SAE
SAE
SAE
SAE
SAE
SAE
SAE
SAE
SAE
SAE
SAE
SAE
SAE
SAE
SAE
SAE
SAE
SAE
SAE
SAE
SAE
SAE
SAE
SAE
SAE
SAE
SAE
SAE
SAE
SAE
SAE
SAE
SAE
SAE
SAE
SAE
SAE
SAE
SAE
SAE
SAE
SAE
SAE
SAE
SAE
SAE
SAE
SAE
SAE
SAE
SAE
SAE
SAE
SAE
SAE
SAE
SAE
SAE
SAE
SAE
SAE
SAE
SAE
SAE
SAE
SAE
SAE
SAE
SAE
SAE
SAE
SAE
SAE
SAE
SAE
SAE
SAE
SAE
SAE
SAE
SAE
SAE
SAE
SAE
SAE
SAE
SAE
SAE
SAE
SAE
SAE
SAE
SAE
SAE
SAE
SAE
SAE
SAE
SAE
SAE
SAE
SAE
SAE
SAE
SAE
SAE
SAE
SAE
SAE
SAE
SAE
SAE
SAE
SAE
SAE
SAE
SAE
SAE
SAE
SAE
SAE
SAE
SAE
SAE
SAE
SAE
SAE
SAE
SAE
SAE
SAE
SAE
SAE
SAE
SAE
SAE
SAE
SAE
SAE
SAE
SAE
SAE
SAE
SAE
SAE
SAE
SAE
SAE
SAE
SAE
SAE
SAE
SAE
SAE
SAE
SAE
SAE
SAE
SAE
SAE
SAE
SAE
SAE
SAE
SAE
SAE
SAE
SAE
SAE
SAE
SAE
SAE
SAE
SAE
SAE
SAE
SAE
SAE
SAE
SAE
SAE
SAE
SAE
SAE
SAE
SAE
SAE
SAE
SAE
SAE
SAE
SAE
SAE
SAE
SAE
SAE
SAE
SAE
SAE
SAE
SAE
SAE
SAE
SAE
SAE
SAE
SAE
SAE
SAE
SAE
SAE
SAE
SAE
SAE
SAE
SAE
SAE
SAE
SAE
SAE
SAE
SAE
SAE
SAE
SAE
SAE
SAE
SAE
SAE
SAE
SAE
SAE
SAE
SAE
SAE
SAE
SAE
SAE
SAE
SAE
SAE
SAE
SAE
SAE
SAE
SAE
SAE
SAE
SAE
SAE
SAE
SAE
SAE
SAE
SAE
SAE
SAE
SAE
SAE
SAE
SAE
SAE
SAE
SAE
SAE
SAE
SAE
SAE
SAE
SAE
SAE
SAE
SAE
SAE
SAE
SAE
SAE
SAE
SAE
SAE
SAE
SAE
SAE
SAE
SAE
SAE
SAE
SAE
SAE
SAE
SAE
SAE
SAE
SAE
SAE
SAE
SAE
SAE
SAE
SAE
SAE
SAE
SAE
SAE
SAE
SAE
SAE
SAE
SAE
SAE
SAE
SAE
SAE
SAE
SAE
SAE
SAE
SAE
SAE
SAE
SAE
SAE
SAE
SAE
SAE
SAE
SAE
SAE
SAE
SAE
SAE
SAE
SAE
SAE
SAE
SAE
SAE
SAE
SAE
SAE
SAE
SAE
SAE
SAE
SAE
SAE
SAE
SAE
SAE
SAE
SAE
SAE
SAE
SAE
SAE
SAE
SAE
SAE
SAE
SAE
SAE
SAE
SAE
SAE
SAE
SAE
SAE
SAE
SAE
SAE
SAE
SAE
SAE
SAE
SAE
SAE
SAE
SAE
SAE
SAE
SAE
SAE
SAE
SAE
SAE
SAE
SAE
SAE
SAE
SAE
SAE
SAE
SAE
SAE
SAE
SAE
SAE
SAE
SAE
SAE
SAE
SAE
SAE
SAE
SAE
SAE
SAE
SAE
SAE
SAE
SAE
SAE
SAE
SAE
SAE
SAE
SAE
SAE
SAE
SAE
SAE
SAE
SAE
SAE
SAE
SAE
SAE
SAE
SAE
SAE
SAE
SAE
SAE
SAE
SAE
SAE
SAE
SAE
SAE
SAE
SAE
SAE
SAE
SAE
SAE
SAE
SAE
SAE
SAE
SAE
SAE
SAE
SAE
SAE
SAE
SAE
SAE
SAE
SAE
SAE
SAE
SAE
SAE
SAE
SAE
SAE
SAE
SAE
SAE
SAE
SAE
SAE
SAE
SAE
SAE
SAE
SAE
SAE
SAE
SAE
SAE
SAE
SAE
SAE
SAE
SAE
SAE
SAE
SAE
SAE
SAE
SAE
SAE
SAE
SAE
SAE
SAE
SAE
SAE
SAE
SAE
SAE
SAE
SAE
SAE
SAE
SAE
SAE
SAE
SAE
SAE
SAE
SAE
SAE
SAE
SAE
SAE
SAE
SAE
SAE
SAE
SAE
SAE
SAE
SAE
SAE
SAE
SAE
SAE
SAE
SAE
SAE
SAE
SAE
SAE
SAE
SAE
SAE
SAE
SAE
SAE
SAE
SAE
SAE
SAE
SAE
SAE
SAE
SAE
SAE
SAE
SAE
SAE
SAE
SAE
SAE
SAE
SAE
SAE
SAE
SAE
SAE
SAE
SAE
SAE
SAE
SAE
SAE
SAE
SAE
SAE
SAE
SAE
SAE
SAE
SAE
SAE
SAE
SAE
SAE
SAE
SAE
SAE
SAE
SAE
SAE
SAE
SAE
SAE
SAE
SAE
SAE
SAE
SAE
SAE
SAE
SAE
SAE
SAE
SAE
SAE
SAE
SAE
SAE
SAE
SAE
SAE
SAE
SAE
SAE
SAE
SAE
SAE
SAE
SAE
SAE
SAE
SAE
SAE
SAE
SAE
SAE
SAE
SAE
SAE
SAE
SAE
SAE
SAE
SAE
SAE
SAE
SAE
SAE
SAE
SAE
SAE
SAE
SAE
SAE
SAE
SAE
SAE
SAE
SAE
SAE
SAE
SAE
SAE
SAE
SAE
SAE
SAE
SAE
SAE
SAE
SAE
SAE
SAE
SAE
SAE
SAE
SAE
SAE
SAE
SAE
SAE
SAE
SAE
SAE
SAE
SAE
SAE
SAE
SAE
SAE
SAE
SAE
SAE
SAE
SAE
SAE
SAE
SAE
SAE
SAE
SAE
SAE
SAE
SAE
SAE
SAE
SAE
SAE
SAE
SAE
SAE
SAE
SAE
SAE
SAE
SAE
SAE
SAE
SAE
SAE
SAE
SAE
SAE
SAE
SAE
SAE
SAE
SAE
SAE
SAE
SAE
SAE
SAE
SAE
SAE
SAE
SAE
SAE
SAE
SAE
SAE
SAE
SAE
SAE
SAE
SAE
SAE
SAE
SAE
SAE
SAE
SAE
SAE
SAE
SAE
SAE
SAE
SAE
SAE
SAE
SAE
SAE
SAE
SAE
SAE
SAE
SAE
SAE
SAE
SAE
SAE
SAE
SAE
SAE
SAE
SAE
SAE
SAE
SAE
SAE
SAE
SAE
SAE
SAE
SAE
SAE
SAE
SAE
SAE
SAE
SAE
SAE
SAE
SAE
SAE
SAE
SAE
SAE
SAE
SAE
SAE
SAE
SAE
SAE
SAE
SAE
SAE
SAE
SAE
SAE
SAE
SAE
SAE
SAE
SAE
SAE
SAE
SAE
SAE
SAE
SAE
SAE
SAE
SAE
SAE
SAE
SAE
SAE
SAE
SAE
SAE
SAE
SAE
SAE
SAE
SAE
SAE
SAE
SAE
SAE
SAE
SAE
SAE
SAE
SAE
SAE
SAE
SAE
SAE
SAE
SAE
SAE
SAE
SAE
SAE
SAE
SAE
SAE
SAE
SAE
SAE
SAE
SAE
SAE
SAE
SAE
SAE
SAE
SAE
SAE
SAE
SAE
SAE
SAE
Heartbeat CPU 3 instructions: 30000002 cycles: 13319575 heartbeat IPC: 2.25626 cumulative IPC: 2.25232 (Simulation time: 0 hr 25 min 7 sec) 
 Total Blocks : 196608 Invalid Blocks : 771
Heartbeat CPU 2 instructions: 30000002 cycles: 13320497 heartbeat IPC: 2.2561 cumulative IPC: 2.25217 (Simulation time: 0 hr 25 min 7 sec) 
 Total Blocks : 196608 Invalid Blocks : 771
Heartbeat CPU 1 instructions: 30000002 cycles: 13320507 heartbeat IPC: 2.25612 cumulative IPC: 2.25217 (Simulation time: 0 hr 25 min 7 sec) 
 Total Blocks : 196608 Invalid Blocks : 771
Heartbeat CPU 4 instructions: 30000002 cycles: 13320552 heartbeat IPC: 2.25615 cumulative IPC: 2.25216 (Simulation time: 0 hr 25 min 7 sec) 
 Total Blocks : 196608 Invalid Blocks : 771
Heartbeat CPU 0 instructions: 30000002 cycles: 13320694 heartbeat IPC: 2.25605 cumulative IPC: 2.25214 (Simulation time: 0 hr 25 min 7 sec) 
 Total Blocks : 196608 Invalid Blocks : 771
Heartbeat CPU 5 instructions: 30000002 cycles: 13321375 heartbeat IPC: 2.25593 cumulative IPC: 2.25202 (Simulation time: 0 hr 25 min 7 sec) 
 Total Blocks : 196608 Invalid Blocks : 771
Heartbeat CPU 7 instructions: 30000002 cycles: 13321775 heartbeat IPC: 2.2559 cumulative IPC: 2.25195 (Simulation time: 0 hr 25 min 7 sec) 
 Total Blocks : 196608 Invalid Blocks : 771
Heartbeat CPU 6 instructions: 30000002 cycles: 13321851 heartbeat IPC: 2.25581 cumulative IPC: 2.25194 (Simulation time: 0 hr 25 min 7 sec) 
 Total Blocks : 196608 Invalid Blocks : 771
SAE
SAE
SAE
SAE
SAE
SAE
SAE
SAE
SAE
SAE
SAE
SAE
SAE
SAE
SAE
SAE
SAE
SAE
SAE
SAE
SAE
SAE
SAE
SAE
SAE
SAE
SAE
SAE
SAE
SAE
SAE
SAE
SAE
SAE
SAE
SAE
SAE
SAE
SAE
SAE
SAE
SAE
SAE
SAE
SAE
SAE
SAE
SAE
SAE
SAE
SAE
SAE
SAE
SAE
SAE
SAE
SAE
SAE
SAE
SAE
SAE
SAE
SAE
SAE
SAE
SAE
SAE
SAE
SAE
SAE
SAE
SAE
SAE
SAE
SAE
SAE
SAE
SAE
SAE
SAE
SAE
SAE
SAE
SAE
SAE
SAE
SAE
SAE
SAE
SAE
SAE
SAE
SAE
SAE
SAE
SAE
SAE
SAE
SAE
SAE
SAE
SAE
SAE
SAE
SAE
SAE
SAE
SAE
SAE
SAE
SAE
SAE
SAE
SAE
SAE
SAE
SAE
SAE
SAE
SAE
SAE
SAE
SAE
SAE
SAE
SAE
SAE
SAE
SAE
SAE
SAE
SAE
SAE
SAE
SAE
SAE
SAE
SAE
SAE
SAE
SAE
SAE
SAE
SAE
SAE
SAE
SAE
SAE
SAE
SAE
SAE
SAE
SAE
SAE
SAE
SAE
SAE
SAE
SAE
SAE
SAE
SAE
SAE
SAE
SAE
SAE
SAE
SAE
SAE
SAE
SAE
SAE
SAE
SAE
SAE
SAE
SAE
SAE
SAE
SAE
SAE
SAE
SAE
SAE
SAE
SAE
SAE
SAE
SAE
SAE
SAE
SAE
SAE
SAE
SAE
SAE
SAE
SAE
SAE
SAE
SAE
SAE
SAE
SAE
SAE
SAE
SAE
SAE
SAE
SAE
SAE
SAE
SAE
SAE
SAE
SAE
SAE
SAE
SAE
SAE
SAE
SAE
SAE
SAE
SAE
SAE
SAE
SAE
SAE
SAE
SAE
SAE
SAE
SAE
SAE
SAE
SAE
SAE
SAE
SAE
SAE
SAE
SAE
SAE
SAE
SAE
SAE
SAE
SAE
SAE
SAE
SAE
SAE
SAE
SAE
SAE
SAE
SAE
SAE
SAE
SAE
SAE
SAE
SAE
SAE
SAE
SAE
SAE
SAE
SAE
SAE
SAE
SAE
SAE
SAE
SAE
SAE
SAE
SAE
SAE
SAE
SAE
SAE
SAE
SAE
SAE
SAE
SAE
SAE
SAE
SAE
SAE
SAE
SAE
SAE
SAE
SAE
SAE
SAE
SAE
SAE
SAE
SAE
SAE
SAE
SAE
SAE
SAE
SAE
SAE
SAE
SAE
SAE
SAE
SAE
SAE
SAE
SAE
SAE
SAE
SAE
SAE
SAE
SAE
SAE
SAE
SAE
SAE
SAE
SAE
SAE
SAE
SAE
SAE
SAE
SAE
SAE
SAE
SAE
SAE
SAE
SAE
SAE
SAE
SAE
SAE
SAE
SAE
SAE
SAE
SAE
SAE
SAE
SAE
SAE
SAE
SAE
SAE
SAE
SAE
SAE
SAE
SAE
SAE
SAE
SAE
SAE
SAE
SAE
SAE
SAE
SAE
SAE
SAE
SAE
SAE
SAE
SAE
SAE
SAE
SAE
SAE
SAE
SAE
SAE
SAE
SAE
SAE
SAE
SAE
SAE
SAE
SAE
SAE
SAE
SAE
SAE
SAE
SAE
SAE
SAE
SAE
SAE
SAE
SAE
SAE
SAE
SAE
SAE
SAE
SAE
SAE
SAE
SAE
SAE
SAE
SAE
SAE
SAE
SAE
SAE
SAE
SAE
SAE
SAE
SAE
SAE
SAE
SAE
SAE
SAE
SAE
SAE
SAE
SAE
SAE
SAE
SAE
SAE
SAE
SAE
SAE
SAE
SAE
SAE
SAE
SAE
SAE
SAE
SAE
SAE
SAE
SAE
SAE
SAE
SAE
SAE
SAE
SAE
SAE
SAE
SAE
SAE
SAE
SAE
SAE
SAE
SAE
SAE
SAE
SAE
SAE
SAE
SAE
SAE
SAE
SAE
SAE
SAE
SAE
SAE
SAE
SAE
SAE
SAE
SAE
SAE
SAE
SAE
SAE
SAE
SAE
SAE
SAE
SAE
SAE
SAE
SAE
SAE
SAE
SAE
SAE
SAE
SAE
SAE
SAE
SAE
SAE
SAE
SAE
SAE
SAE
SAE
SAE
SAE
SAE
SAE
SAE
SAE
SAE
SAE
SAE
SAE
SAE
SAE
SAE
SAE
SAE
SAE
SAE
SAE
SAE
SAE
SAE
SAE
SAE
SAE
SAE
SAE
SAE
SAE
SAE
SAE
SAE
SAE
SAE
SAE
SAE
SAE
SAE
SAE
SAE
SAE
SAE
SAE
SAE
SAE
SAE
SAE
SAE
SAE
SAE
SAE
SAE
SAE
SAE
SAE
SAE
SAE
SAE
SAE
SAE
SAE
SAE
SAE
SAE
SAE
SAE
SAE
SAE
SAE
SAE
SAE
SAE
SAE
SAE
SAE
SAE
SAE
SAE
SAE
SAE
SAE
SAE
SAE
SAE
SAE
SAE
SAE
SAE
SAE
SAE
SAE
SAE
SAE
SAE
SAE
SAE
SAE
SAE
SAE
SAE
SAE
SAE
SAE
SAE
SAE
SAE
SAE
SAE
SAE
SAE
SAE
SAE
SAE
SAE
SAE
SAE
SAE
SAE
SAE
SAE
SAE
SAE
SAE
SAE
SAE
SAE
SAE
SAE
SAE
SAE
SAE
SAE
SAE
SAE
SAE
SAE
SAE
SAE
SAE
SAE
SAE
SAE
SAE
SAE
SAE
SAE
SAE
SAE
SAE
SAE
SAE
SAE
SAE
SAE
SAE
SAE
SAE
SAE
SAE
SAE
SAE
SAE
SAE
SAE
SAE
SAE
SAE
SAE
SAE
SAE
SAE
SAE
SAE
SAE
SAE
SAE
SAE
SAE
SAE
SAE
SAE
SAE
SAE
SAE
SAE
SAE
SAE
SAE
SAE
SAE
SAE
SAE
SAE
SAE
SAE
SAE
SAE
SAE
SAE
SAE
SAE
SAE
SAE
SAE
SAE
SAE
SAE
SAE
SAE
SAE
SAE
SAE
SAE
SAE
SAE
SAE
SAE
SAE
SAE
SAE
SAE
SAE
SAE
SAE
SAE
SAE
SAE
SAE
SAE
SAE
SAE
SAE
SAE
SAE
SAE
SAE
SAE
SAE
SAE
SAE
SAE
SAE
SAE
SAE
SAE
SAE
SAE
SAE
SAE
SAE
SAE
SAE
SAE
SAE
SAE
SAE
SAE
SAE
SAE
SAE
SAE
SAE
SAE
SAE
SAE
SAE
SAE
SAE
SAE
SAE
SAE
SAE
SAE
SAE
SAE
SAE
SAE
SAE
SAE
SAE
SAE
SAE
SAE
SAE
SAE
SAE
SAE
SAE
SAE
SAE
SAE
SAE
SAE
SAE
SAE
SAE
SAE
SAE
SAE
SAE
SAE
SAE
SAE
SAE
SAE
SAE
SAE
SAE
SAE
SAE
SAE
SAE
SAE
SAE
SAE
SAE
SAE
SAE
SAE
SAE
SAE
SAE
SAE
SAE
SAE
SAE
SAE
SAE
SAE
SAE
SAE
SAE
SAE
SAE
SAE
SAE
SAE
SAE
SAE
SAE
SAE
SAE
SAE
SAE
SAE
SAE
SAE
SAE
SAE
SAE
SAE
SAE
SAE
SAE
SAE
SAE
SAE
SAE
SAE
SAE
SAE
SAE
SAE
SAE
SAE
SAE
SAE
SAE
SAE
SAE
SAE
SAE
SAE
SAE
SAE
SAE
SAE
SAE
SAE
SAE
SAE
SAE
SAE
SAE
SAE
SAE
SAE
SAE
SAE
SAE
SAE
SAE
SAE
SAE
SAE
SAE
SAE
SAE
SAE
SAE
SAE
SAE
SAE
SAE
SAE
SAE
SAE
SAE
SAE
SAE
SAE
SAE
SAE
SAE
SAE
SAE
SAE
SAE
SAE
SAE
SAE
SAE
SAE
SAE
SAE
SAE
SAE
SAE
SAE
SAE
SAE
SAE
SAE
SAE
SAE
SAE
SAE
SAE
SAE
SAE
SAE
SAE
SAE
SAE
SAE
SAE
SAE
SAE
SAE
SAE
SAE
SAE
SAE
SAE
SAE
SAE
SAE
SAE
SAE
SAE
SAE
SAE
SAE
SAE
SAE
SAE
SAE
SAE
SAE
SAE
SAE
SAE
SAE
SAE
SAE
SAE
SAE
SAE
SAE
SAE
SAE
SAE
SAE
SAE
SAE
SAE
SAE
SAE
SAE
SAE
SAE
SAE
SAE
SAE
SAE
SAE
SAE
SAE
SAE
SAE
SAE
SAE
SAE
SAE
SAE
SAE
SAE
SAE
SAE
SAE
SAE
SAE
SAE
SAE
SAE
SAE
SAE
SAE
SAE
SAE
SAE
SAE
SAE
SAE
SAE
SAE
SAE
SAE
SAE
SAE
SAE
SAE
SAE
SAE
SAE
SAE
SAE
SAE
SAE
SAE
SAE
SAE
SAE
SAE
SAE
SAE
SAE
SAE
SAE
SAE
SAE
SAE
SAE
SAE
SAE
SAE
SAE
SAE
SAE
SAE
SAE
SAE
SAE
SAE
SAE
SAE
SAE
SAE
SAE
SAE
SAE
SAE
SAE
SAE
SAE
SAE
SAE
SAE
SAE
SAE
SAE
SAE
SAE
SAE
SAE
SAE
SAE
SAE
SAE
SAE
SAE
SAE
SAE
SAE
SAE
SAE
SAE
SAE
SAE
SAE
SAE
SAE
SAE
SAE
SAE
SAE
SAE
SAE
SAE
SAE
SAE
SAE
SAE
SAE
SAE
SAE
SAE
SAE
SAE
SAE
SAE
SAE
SAE
SAE
SAE
SAE
SAE
SAE
SAE
SAE
SAE
SAE
SAE
SAE
SAE
SAE
SAE
SAE
SAE
SAE
SAE
SAE
SAE
SAE
SAE
SAE
SAE
SAE
SAE
SAE
SAE
SAE
SAE
SAE
SAE
SAE
SAE
SAE
SAE
SAE
SAE
SAE
SAE
SAE
SAE
SAE
SAE
SAE
SAE
SAE
SAE
SAE
SAE
SAE
SAE
SAE
SAE
SAE
SAE
SAE
SAE
SAE
SAE
SAE
SAE
SAE
SAE
SAE
SAE
SAE
SAE
SAE
SAE
SAE
SAE
SAE
SAE
SAE
SAE
SAE
SAE
SAE
SAE
SAE
SAE
SAE
SAE
SAE
SAE
SAE
SAE
SAE
SAE
SAE
SAE
SAE
SAE
SAE
SAE
SAE
SAE
SAE
SAE
SAE
SAE
SAE
SAE
SAE
SAE
SAE
SAE
SAE
SAE
SAE
SAE
SAE
SAE
SAE
SAE
SAE
SAE
SAE
SAE
SAE
SAE
SAE
SAE
SAE
SAE
SAE
SAE
SAE
SAE
SAE
SAE
SAE
SAE
SAE
SAE
SAE
SAE
SAE
SAE
SAE
SAE
SAE
SAE
SAE
SAE
SAE
SAE
SAE
SAE
SAE
SAE
SAE
SAE
SAE
SAE
SAE
SAE
SAE
SAE
SAE
SAE
SAE
SAE
SAE
SAE
SAE
SAE
SAE
SAE
SAE
SAE
SAE
SAE
SAE
SAE
SAE
SAE
SAE
SAE
SAE
SAE
SAE
SAE
SAE
SAE
SAE
SAE
SAE
SAE
SAE
SAE
SAE
SAE
SAE
SAE
SAE
SAE
SAE
SAE
SAE
SAE
SAE
SAE
SAE
SAE
SAE
SAE
SAE
SAE
SAE
SAE
SAE
SAE
SAE
SAE
SAE
SAE
SAE
SAE
SAE
SAE
SAE
SAE
SAE
SAE
SAE
SAE
SAE
SAE
SAE
SAE
SAE
SAE
SAE
SAE
SAE
SAE
SAE
SAE
SAE
SAE
SAE
SAE
SAE
SAE
SAE
SAE
SAE
SAE
SAE
SAE
SAE
SAE
SAE
SAE
SAE
SAE
SAE
SAE
SAE
SAE
SAE
SAE
SAE
SAE
SAE
SAE
SAE
SAE
SAE
SAE
SAE
SAE
SAE
SAE
SAE
SAE
SAE
SAE
SAE
SAE
SAE
SAE
SAE
SAE
SAE
SAE
SAE
SAE
SAE
SAE
SAE
SAE
SAE
SAE
SAE
SAE
SAE
SAE
SAE
SAE
SAE
SAE
SAE
SAE
SAE
SAE
SAE
SAE
SAE
SAE
SAE
SAE
SAE
SAE
SAE
SAE
SAE
SAE
SAE
SAE
SAE
SAE
SAE
SAE
SAE
SAE
SAE
SAE
SAE
SAE
SAE
SAE
SAE
SAE
SAE
SAE
SAE
SAE
SAE
SAE
SAE
SAE
SAE
SAE
SAE
SAE
SAE
SAE
SAE
SAE
SAE
SAE
SAE
SAE
SAE
SAE
SAE
SAE
SAE
SAE
SAE
SAE
SAE
SAE
SAE
SAE
SAE
SAE
SAE
SAE
SAE
SAE
SAE
SAE
SAE
SAE
SAE
SAE
SAE
SAE
SAE
SAE
SAE
SAE
SAE
SAE
SAE
SAE
SAE
SAE
SAE
SAE
SAE
SAE
SAE
SAE
SAE
SAE
SAE
SAE
SAE
SAE
SAE
SAE
SAE
SAE
SAE
SAE
SAE
SAE
SAE
SAE
SAE
SAE
SAE
SAE
SAE
SAE
SAE
SAE
SAE
SAE
SAE
SAE
SAE
SAE
SAE
SAE
SAE
SAE
SAE
SAE
SAE
SAE
SAE
SAE
SAE
SAE
SAE
SAE
SAE
SAE
SAE
SAE
SAE
SAE
SAE
SAE
SAE
SAE
SAE
SAE
SAE
SAE
SAE
SAE
SAE
SAE
SAE
SAE
SAE
SAE
SAE
SAE
SAE
SAE
SAE
SAE
SAE
SAE
SAE
SAE
SAE
SAE
SAE
SAE
SAE
SAE
SAE
SAE
SAE
SAE
SAE
SAE
SAE
SAE
SAE
SAE
SAE
SAE
SAE
SAE
SAE
SAE
SAE
SAE
SAE
SAE
SAE
SAE
SAE
SAE
SAE
SAE
SAE
SAE
SAE
SAE
SAE
SAE
SAE
SAE
SAE
SAE
SAE
SAE
SAE
SAE
SAE
SAE
SAE
SAE
SAE
SAE
SAE
SAE
SAE
SAE
SAE
SAE
SAE
SAE
SAE
SAE
SAE
SAE
SAE
SAE
SAE
SAE
SAE
SAE
SAE
SAE
SAE
SAE
SAE
SAE
SAE
SAE
SAE
SAE
SAE
SAE
SAE
SAE
SAE
SAE
SAE
SAE
SAE
SAE
SAE
SAE
SAE
SAE
SAE
SAE
SAE
SAE
SAE
SAE
SAE
SAE
SAE
SAE
SAE
SAE
SAE
SAE
SAE
SAE
SAE
SAE
SAE
SAE
SAE
SAE
SAE
SAE
SAE
SAE
SAE
SAE
SAE
SAE
SAE
SAE
SAE
SAE
SAE
SAE
SAE
SAE
SAE
SAE
SAE
SAE
SAE
SAE
SAE
SAE
SAE
SAE
SAE
SAE
SAE
SAE
SAE
SAE
SAE
SAE
SAE
SAE
SAE
SAE
SAE
SAE
SAE
SAE
SAE
SAE
SAE
SAE
SAE
SAE
SAE
SAE
SAE
SAE
SAE
SAE
SAE
SAE
SAE
SAE
SAE
SAE
SAE
SAE
SAE
SAE
SAE
SAE
SAE
SAE
SAE
SAE
SAE
SAE
SAE
SAE
SAE
SAE
SAE
SAE
SAE
SAE
SAE
SAE
SAE
SAE
SAE
SAE
SAE
SAE
SAE
SAE
SAE
SAE
SAE
SAE
SAE
SAE
SAE
SAE
SAE
SAE
SAE
SAE
SAE
SAE
SAE
SAE
SAE
SAE
SAE
SAE
SAE
SAE
SAE
SAE
SAE
SAE
SAE
SAE
SAE
SAE
SAE
SAE
SAE
SAE
SAE
SAE
SAE
SAE
SAE
SAE
SAE
SAE
SAE
SAE
SAE
SAE
SAE
SAE
SAE
SAE
SAE
SAE
SAE
SAE
SAE
SAE
SAE
SAE
SAE
SAE
SAE
SAE
SAE
SAE
SAE
SAE
SAE
SAE
SAE
SAE
SAE
SAE
SAE
SAE
SAE
SAE
SAE
SAE
SAE
SAE
SAE
SAE
SAE
SAE
SAE
SAE
SAE
SAE
SAE
SAE
SAE
SAE
SAE
SAE
SAE
SAE
SAE
SAE
SAE
SAE
SAE
SAE
SAE
SAE
SAE
SAE
SAE
SAE
SAE
SAE
SAE
SAE
SAE
SAE
SAE
SAE
SAE
SAE
SAE
SAE
SAE
SAE
SAE
SAE
SAE
SAE
SAE
SAE
SAE
SAE
SAE
SAE
SAE
SAE
SAE
SAE
SAE
SAE
SAE
SAE
SAE
SAE
SAE
SAE
SAE
SAE
SAE
SAE
SAE
SAE
SAE
SAE
SAE
SAE
SAE
SAE
SAE
SAE
SAE
SAE
SAE
SAE
SAE
SAE
SAE
SAE
SAE
SAE
SAE
SAE
SAE
SAE
SAE
SAE
SAE
SAE
SAE
SAE
SAE
SAE
SAE
SAE
SAE
SAE
SAE
SAE
SAE
SAE
SAE
SAE
SAE
SAE
SAE
SAE
SAE
SAE
SAE
SAE
SAE
SAE
SAE
SAE
SAE
SAE
SAE
SAE
SAE
SAE
SAE
SAE
SAE
SAE
SAE
SAE
SAE
SAE
SAE
SAE
SAE
SAE
SAE
SAE
SAE
SAE
SAE
SAE
SAE
SAE
SAE
SAE
SAE
SAE
SAE
SAE
SAE
SAE
SAE
SAE
SAE
SAE
SAE
SAE
SAE
SAE
SAE
SAE
SAE
SAE
SAE
SAE
SAE
SAE
SAE
SAE
SAE
SAE
SAE
SAE
SAE
SAE
SAE
SAE
SAE
SAE
SAE
SAE
SAE
SAE
SAE
SAE
SAE
SAE
SAE
SAE
SAE
SAE
SAE
SAE
SAE
SAE
SAE
SAE
SAE
SAE
SAE
SAE
SAE
SAE
SAE
SAE
SAE
SAE
SAE
SAE
SAE
SAE
SAE
SAE
SAE
SAE
SAE
SAE
SAE
SAE
SAE
SAE
SAE
SAE
SAE
SAE
SAE
SAE
SAE
SAE
SAE
SAE
SAE
SAE
SAE
SAE
SAE
SAE
SAE
SAE
SAE
SAE
SAE
SAE
SAE
SAE
SAE
SAE
SAE
SAE
SAE
SAE
SAE
SAE
SAE
SAE
SAE
SAE
SAE
SAE
SAE
SAE
SAE
SAE
SAE
SAE
SAE
SAE
SAE
SAE
SAE
SAE
SAE
SAE
SAE
SAE
SAE
SAE
SAE
SAE
SAE
SAE
SAE
SAE
SAE
SAE
SAE
SAE
SAE
SAE
SAE
SAE
SAE
SAE
SAE
SAE
SAE
SAE
SAE
SAE
SAE
SAE
SAE
SAE
SAE
SAE
SAE
SAE
SAE
SAE
SAE
SAE
SAE
SAE
SAE
SAE
SAE
SAE
SAE
SAE
SAE
SAE
SAE
SAE
SAE
SAE
SAE
SAE
SAE
SAE
Heartbeat CPU 3 instructions: 40000000 cycles: 17751894 heartbeat IPC: 2.25615 cumulative IPC: 2.25328 (Simulation time: 0 hr 30 min 43 sec) 
 Total Blocks : 196608 Invalid Blocks : 662
SAE
SAE
Heartbeat CPU 4 instructions: 40000000 cycles: 17753168 heartbeat IPC: 2.256 cumulative IPC: 2.25312 (Simulation time: 0 hr 30 min 43 sec) 
 Total Blocks : 196608 Invalid Blocks : 663
Heartbeat CPU 1 instructions: 40000000 cycles: 17753184 heartbeat IPC: 2.25597 cumulative IPC: 2.25312 (Simulation time: 0 hr 30 min 43 sec) 
 Total Blocks : 196608 Invalid Blocks : 663
Heartbeat CPU 2 instructions: 40000000 cycles: 17753215 heartbeat IPC: 2.25595 cumulative IPC: 2.25311 (Simulation time: 0 hr 30 min 43 sec) 
 Total Blocks : 196608 Invalid Blocks : 663
Heartbeat CPU 0 instructions: 40000000 cycles: 17753281 heartbeat IPC: 2.25602 cumulative IPC: 2.2531 (Simulation time: 0 hr 30 min 43 sec) 
 Total Blocks : 196608 Invalid Blocks : 663
SAE
Heartbeat CPU 5 instructions: 40000000 cycles: 17754189 heartbeat IPC: 2.2559 cumulative IPC: 2.25299 (Simulation time: 0 hr 30 min 43 sec) 
 Total Blocks : 196608 Invalid Blocks : 661
SAE
Heartbeat CPU 7 instructions: 40000000 cycles: 17754683 heartbeat IPC: 2.25586 cumulative IPC: 2.25293 (Simulation time: 0 hr 30 min 43 sec) 
 Total Blocks : 196608 Invalid Blocks : 661
Heartbeat CPU 6 instructions: 40000000 cycles: 17754774 heartbeat IPC: 2.25585 cumulative IPC: 2.25292 (Simulation time: 0 hr 30 min 43 sec) 
 Total Blocks : 196608 Invalid Blocks : 661
SAE
SAE
SAE
SAE
SAE
SAE
SAE
SAE
SAE
SAE
SAE
SAE
SAE
SAE
SAE
SAE
SAE
SAE
SAE
SAE
SAE
SAE
SAE
SAE
SAE
SAE
SAE
SAE
SAE
SAE
SAE
SAE
SAE
SAE
SAE
SAE
SAE
SAE
SAE
SAE
SAE
SAE
SAE
SAE
SAE
SAE
SAE
SAE
SAE
SAE
SAE
SAE
SAE
SAE
SAE
SAE
SAE
SAE
SAE
SAE
SAE
SAE
SAE
SAE
SAE
SAE
SAE
SAE
SAE
SAE
SAE
SAE
SAE
SAE
SAE
SAE
SAE
SAE
SAE
SAE
SAE
SAE
SAE
SAE
SAE
SAE
SAE
SAE
SAE
SAE
SAE
SAE
SAE
SAE
SAE
SAE
SAE
SAE
SAE
SAE
SAE
SAE
SAE
SAE
SAE
SAE
SAE
SAE
SAE
SAE
SAE
SAE
SAE
SAE
SAE
SAE
SAE
SAE
SAE
SAE
SAE
SAE
SAE
SAE
SAE
SAE
SAE
SAE
SAE
SAE
SAE
SAE
SAE
SAE
SAE
SAE
SAE
SAE
SAE
SAE
SAE
SAE
SAE
SAE
SAE
SAE
SAE
SAE
SAE
SAE
SAE
SAE
SAE
SAE
SAE
SAE
SAE
SAE
SAE
SAE
SAE
SAE
SAE
SAE
SAE
SAE
SAE
SAE
SAE
SAE
SAE
SAE
SAE
SAE
SAE
SAE
SAE
SAE
SAE
SAE
SAE
SAE
SAE
SAE
SAE
SAE
SAE
SAE
SAE
SAE
SAE
SAE
SAE
SAE
SAE
SAE
SAE
SAE
SAE
SAE
SAE
SAE
SAE
SAE
SAE
SAE
SAE
SAE
SAE
SAE
SAE
SAE
SAE
SAE
SAE
SAE
SAE
SAE
SAE
SAE
SAE
SAE
SAE
SAE
SAE
SAE
SAE
SAE
SAE
SAE
SAE
SAE
SAE
SAE
SAE
SAE
SAE
SAE
SAE
SAE
SAE
SAE
SAE
SAE
SAE
SAE
SAE
SAE
SAE
SAE
SAE
SAE
SAE
SAE
SAE
SAE
SAE
SAE
SAE
SAE
SAE
SAE
SAE
SAE
SAE
SAE
SAE
SAE
SAE
SAE
SAE
SAE
SAE
SAE
SAE
SAE
SAE
SAE
SAE
SAE
SAE
SAE
SAE
SAE
SAE
SAE
SAE
SAE
SAE
SAE
SAE
SAE
SAE
SAE
SAE
SAE
SAE
SAE
SAE
SAE
SAE
SAE
SAE
SAE
SAE
SAE
SAE
SAE
SAE
SAE
SAE
SAE
SAE
SAE
SAE
SAE
SAE
SAE
SAE
SAE
SAE
SAE
SAE
SAE
SAE
SAE
SAE
SAE
SAE
SAE
SAE
SAE
SAE
SAE
SAE
SAE
SAE
SAE
SAE
SAE
SAE
SAE
SAE
SAE
SAE
SAE
SAE
SAE
SAE
SAE
SAE
SAE
SAE
SAE
SAE
SAE
SAE
SAE
SAE
SAE
SAE
SAE
SAE
SAE
SAE
SAE
SAE
SAE
SAE
SAE
SAE
SAE
SAE
SAE
SAE
SAE
SAE
SAE
SAE
SAE
SAE
SAE
SAE
SAE
SAE
SAE
SAE
SAE
SAE
SAE
SAE
SAE
SAE
SAE
SAE
SAE
SAE
SAE
SAE
SAE
SAE
SAE
SAE
SAE
SAE
SAE
SAE
SAE
SAE
SAE
SAE
SAE
SAE
SAE
SAE
SAE
SAE
SAE
SAE
SAE
SAE
SAE
SAE
SAE
SAE
SAE
SAE
SAE
SAE
SAE
SAE
SAE
SAE
SAE
SAE
SAE
SAE
SAE
SAE
SAE
SAE
SAE
SAE
SAE
SAE
SAE
SAE
SAE
SAE
SAE
SAE
SAE
SAE
SAE
SAE
SAE
SAE
SAE
SAE
SAE
SAE
SAE
SAE
SAE
SAE
SAE
SAE
SAE
SAE
SAE
SAE
SAE
SAE
SAE
SAE
SAE
SAE
SAE
SAE
SAE
SAE
SAE
SAE
SAE
SAE
SAE
SAE
SAE
SAE
SAE
SAE
SAE
SAE
SAE
SAE
SAE
SAE
SAE
SAE
SAE
SAE
SAE
SAE
SAE
SAE
SAE
SAE
SAE
SAE
SAE
SAE
SAE
SAE
SAE
SAE
SAE
SAE
SAE
SAE
SAE
SAE
SAE
SAE
SAE
SAE
SAE
SAE
SAE
SAE
SAE
SAE
SAE
SAE
SAE
SAE
SAE
SAE
SAE
SAE
SAE
SAE
SAE
SAE
SAE
SAE
SAE
SAE
SAE
SAE
SAE
SAE
SAE
SAE
SAE
SAE
SAE
SAE
SAE
SAE
SAE
SAE
SAE
SAE
SAE
SAE
SAE
SAE
SAE
SAE
SAE
SAE
SAE
SAE
SAE
SAE
SAE
SAE
SAE
SAE
SAE
SAE
SAE
SAE
SAE
SAE
SAE
SAE
SAE
SAE
SAE
SAE
SAE
SAE
SAE
SAE
SAE
SAE
SAE
SAE
SAE
SAE
SAE
SAE
SAE
SAE
SAE
SAE
SAE
SAE
SAE
SAE
SAE
SAE
SAE
SAE
SAE
SAE
SAE
SAE
SAE
SAE
SAE
SAE
SAE
SAE
SAE
SAE
SAE
SAE
SAE
SAE
SAE
SAE
SAE
SAE
SAE
SAE
SAE
SAE
SAE
SAE
SAE
SAE
SAE
SAE
SAE
SAE
SAE
SAE
SAE
SAE
SAE
SAE
SAE
SAE
SAE
SAE
SAE
SAE
SAE
SAE
SAE
SAE
SAE
SAE
SAE
SAE
SAE
SAE
SAE
SAE
SAE
SAE
SAE
SAE
SAE
SAE
SAE
SAE
SAE
SAE
SAE
SAE
SAE
SAE
SAE
SAE
SAE
SAE
SAE
SAE
SAE
SAE
SAE
SAE
SAE
SAE
SAE
SAE
SAE
SAE
SAE
SAE
SAE
SAE
SAE
SAE
SAE
SAE
SAE
SAE
SAE
SAE
SAE
SAE
SAE
SAE
SAE
SAE
SAE
SAE
SAE
SAE
SAE
SAE
SAE
SAE
SAE
SAE
SAE
SAE
SAE
SAE
SAE
SAE
SAE
SAE
SAE
SAE
SAE
SAE
SAE
SAE
SAE
SAE
SAE
SAE
SAE
SAE
SAE
SAE
SAE
SAE
SAE
SAE
SAE
SAE
SAE
SAE
SAE
SAE
SAE
SAE
SAE
SAE
SAE
SAE
SAE
SAE
SAE
SAE
SAE
SAE
SAE
SAE
SAE
SAE
SAE
SAE
SAE
SAE
SAE
SAE
SAE
SAE
SAE
SAE
SAE
SAE
SAE
SAE
SAE
SAE
SAE
SAE
SAE
SAE
SAE
SAE
SAE
SAE
SAE
SAE
SAE
SAE
SAE
SAE
SAE
SAE
SAE
SAE
SAE
SAE
SAE
SAE
SAE
SAE
SAE
SAE
SAE
SAE
SAE
SAE
SAE
SAE
SAE
SAE
SAE
SAE
SAE
SAE
SAE
SAE
SAE
SAE
SAE
SAE
SAE
SAE
SAE
SAE
SAE
SAE
SAE
SAE
SAE
SAE
SAE
SAE
SAE
SAE
SAE
SAE
SAE
SAE
SAE
SAE
SAE
SAE
SAE
SAE
SAE
SAE
SAE
SAE
SAE
SAE
SAE
SAE
SAE
SAE
SAE
SAE
SAE
SAE
SAE
SAE
SAE
SAE
SAE
SAE
SAE
SAE
SAE
SAE
SAE
SAE
SAE
SAE
SAE
SAE
SAE
SAE
SAE
SAE
SAE
SAE
SAE
SAE
SAE
SAE
SAE
SAE
SAE
SAE
SAE
SAE
SAE
SAE
SAE
SAE
SAE
SAE
SAE
SAE
SAE
SAE
SAE
SAE
SAE
SAE
SAE
SAE
SAE
SAE
SAE
SAE
SAE
SAE
SAE
SAE
SAE
SAE
SAE
SAE
SAE
SAE
SAE
SAE
SAE
SAE
SAE
SAE
SAE
SAE
SAE
SAE
SAE
SAE
SAE
SAE
SAE
SAE
SAE
SAE
SAE
SAE
SAE
SAE
SAE
SAE
SAE
SAE
SAE
SAE
SAE
SAE
SAE
SAE
SAE
SAE
SAE
SAE
SAE
SAE
SAE
SAE
SAE
SAE
SAE
SAE
SAE
SAE
SAE
SAE
SAE
SAE
SAE
SAE
SAE
SAE
SAE
SAE
SAE
SAE
SAE
SAE
SAE
SAE
SAE
SAE
SAE
SAE
SAE
SAE
SAE
SAE
SAE
SAE
SAE
SAE
SAE
SAE
SAE
SAE
SAE
SAE
SAE
SAE
SAE
SAE
SAE
SAE
SAE
SAE
SAE
SAE
SAE
SAE
SAE
SAE
SAE
SAE
SAE
SAE
SAE
SAE
SAE
SAE
SAE
SAE
SAE
SAE
SAE
SAE
SAE
SAE
SAE
SAE
SAE
SAE
SAE
SAE
SAE
SAE
SAE
SAE
SAE
SAE
SAE
SAE
SAE
SAE
SAE
SAE
SAE
SAE
SAE
SAE
SAE
SAE
SAE
SAE
SAE
SAE
SAE
SAE
SAE
SAE
SAE
SAE
SAE
SAE
SAE
SAE
SAE
SAE
SAE
SAE
SAE
SAE
SAE
SAE
SAE
SAE
SAE
SAE
SAE
SAE
SAE
SAE
SAE
SAE
SAE
SAE
SAE
SAE
SAE
SAE
SAE
SAE
SAE
SAE
SAE
SAE
SAE
SAE
SAE
SAE
SAE
SAE
SAE
SAE
SAE
SAE
SAE
SAE
SAE
SAE
SAE
SAE
SAE
SAE
SAE
SAE
SAE
SAE
SAE
SAE
SAE
SAE
SAE
SAE
SAE
SAE
SAE
SAE
SAE
SAE
SAE
SAE
SAE
SAE
SAE
SAE
SAE
SAE
SAE
SAE
SAE
SAE
SAE
SAE
SAE
SAE
SAE
SAE
SAE
SAE
SAE
SAE
SAE
SAE
SAE
SAE
SAE
SAE
SAE
SAE
SAE
SAE
SAE
SAE
SAE
SAE
SAE
SAE
SAE
SAE
SAE
SAE
SAE
SAE
SAE
SAE
SAE
SAE
SAE
SAE
SAE
SAE
SAE
SAE
SAE
SAE
SAE
SAE
SAE
SAE
SAE
SAE
SAE
SAE
SAE
SAE
SAE
SAE
SAE
SAE
SAE
SAE
SAE
SAE
SAE
SAE
SAE
SAE
SAE
SAE
SAE
SAE
SAE
SAE
SAE
SAE
SAE
SAE
SAE
SAE
SAE
SAE
SAE
SAE
SAE
SAE
SAE
SAE
SAE
SAE
SAE
SAE
SAE
SAE
SAE
SAE
SAE
SAE
SAE
SAE
SAE
SAE
SAE
SAE
SAE
SAE
SAE
SAE
SAE
SAE
SAE
SAE
SAE
SAE
SAE
SAE
SAE
SAE
SAE
SAE
SAE
SAE
SAE
SAE
SAE
SAE
SAE
SAE
SAE
SAE
SAE
SAE
SAE
SAE
SAE
SAE
SAE
SAE
SAE
SAE
SAE
SAE
SAE
SAE
SAE
SAE
SAE
SAE
SAE
SAE
SAE
SAE
SAE
SAE
SAE
SAE
SAE
SAE
SAE
SAE
SAE
SAE
SAE
SAE
SAE
SAE
SAE
SAE
SAE
SAE
SAE
SAE
SAE
SAE
SAE
SAE
SAE
SAE
SAE
SAE
SAE
SAE
SAE
SAE
SAE
SAE
SAE
SAE
SAE
SAE
SAE
SAE
SAE
SAE
SAE
SAE
SAE
SAE
SAE
SAE
SAE
SAE
SAE
SAE
SAE
SAE
SAE
SAE
SAE
SAE
SAE
SAE
SAE
SAE
SAE
SAE
SAE
SAE
SAE
SAE
SAE
SAE
SAE
SAE
SAE
SAE
SAE
SAE
SAE
SAE
SAE
SAE
SAE
SAE
SAE
SAE
SAE
SAE
SAE
SAE
SAE
SAE
SAE
SAE
SAE
SAE
SAE
SAE
SAE
SAE
SAE
SAE
SAE
SAE
SAE
SAE
SAE
SAE
SAE
SAE
SAE
SAE
SAE
SAE
SAE
SAE
SAE
SAE
SAE
SAE
SAE
SAE
SAE
SAE
SAE
SAE
SAE
SAE
SAE
SAE
SAE
SAE
SAE
SAE
SAE
SAE
SAE
SAE
SAE
SAE
SAE
SAE
SAE
SAE
SAE
SAE
SAE
SAE
SAE
SAE
SAE
SAE
SAE
SAE
SAE
SAE
SAE
SAE
SAE
SAE
SAE
SAE
SAE
SAE
SAE
SAE
SAE
SAE
SAE
SAE
SAE
SAE
SAE
SAE
SAE
SAE
SAE
SAE
SAE
SAE
SAE
SAE
SAE
SAE
SAE
SAE
SAE
SAE
SAE
SAE
SAE
SAE
SAE
SAE
SAE
SAE
SAE
SAE
SAE
SAE
SAE
SAE
SAE
SAE
SAE
SAE
SAE
SAE
SAE
SAE
SAE
SAE
SAE
SAE
SAE
SAE
SAE
SAE
SAE
SAE
SAE
SAE
SAE
SAE
SAE
SAE
SAE
SAE
SAE
SAE
SAE
SAE
SAE
SAE
SAE
SAE
SAE
SAE
SAE
SAE
SAE
SAE
SAE
SAE
SAE
SAE
SAE
SAE
SAE
SAE
SAE
SAE
SAE
SAE
SAE
SAE
SAE
SAE
SAE
SAE
SAE
SAE
SAE
SAE
SAE
SAE
SAE
SAE
SAE
SAE
SAE
SAE
SAE
SAE
SAE
SAE
SAE
SAE
SAE
SAE
SAE
SAE
SAE
SAE
SAE
SAE
SAE
SAE
SAE
SAE
SAE
SAE
SAE
SAE
SAE
SAE
SAE
SAE
SAE
SAE
SAE
SAE
SAE
SAE
SAE
SAE
SAE
SAE
SAE
SAE
SAE
SAE
SAE
SAE
SAE
SAE
SAE
SAE
SAE
SAE
SAE
SAE
SAE
SAE
SAE
SAE
SAE
SAE
SAE
SAE
SAE
SAE
SAE
SAE
SAE
SAE
SAE
SAE
SAE
SAE
SAE
SAE
SAE
SAE
SAE
SAE
SAE
SAE
SAE
SAE
SAE
SAE
SAE
SAE
SAE
SAE
SAE
SAE
SAE
SAE
SAE
SAE
SAE
SAE
SAE
SAE
SAE
SAE
SAE
SAE
SAE
SAE
SAE
SAE
SAE
SAE
SAE
SAE
SAE
SAE
SAE
SAE
SAE
SAE
SAE
SAE
SAE
SAE
SAE
SAE
SAE
SAE
SAE
SAE
SAE
SAE
SAE
SAE
SAE
SAE
SAE
SAE
SAE
SAE
SAE
SAE
SAE
SAE
SAE
SAE
SAE
SAE
SAE
SAE
SAE
SAE
SAE
SAE
SAE
SAE
SAE
SAE
SAE
SAE
SAE
SAE
SAE
SAE
SAE
SAE
SAE
SAE
SAE
SAE
SAE
SAE
SAE
SAE
SAE
SAE
SAE
SAE
SAE
SAE
SAE
SAE
SAE
SAE
SAE
SAE
SAE
SAE
SAE
SAE
SAE
SAE
SAE
SAE
SAE
SAE
SAE
SAE
SAE
SAE
SAE
SAE
SAE
SAE
SAE
SAE
SAE
SAE
SAE
SAE
SAE
SAE
SAE
SAE
SAE
SAE
SAE
SAE
SAE
SAE
SAE
SAE
SAE
SAE
SAE
SAE
SAE
SAE
SAE
SAE
SAE
SAE
SAE
SAE
SAE
SAE
SAE
SAE
SAE
SAE
SAE
SAE
SAE
SAE
SAE
SAE
SAE
SAE
SAE
SAE
SAE
SAE
SAE
SAE
SAE
SAE
SAE
SAE
SAE
SAE
SAE
SAE
SAE
SAE
SAE
SAE
SAE
SAE
SAE
SAE
SAE
SAE
SAE
SAE
SAE
SAE
SAE
SAE
SAE
SAE
SAE
SAE
SAE
SAE
SAE
SAE
SAE
SAE
SAE
SAE
SAE
SAE
SAE
SAE
SAE
SAE
SAE
SAE
SAE
SAE
SAE
SAE
SAE
SAE
SAE
SAE
SAE
SAE
SAE
SAE
SAE
SAE
SAE
SAE
SAE
SAE
SAE
SAE
SAE
SAE
SAE
SAE
SAE
SAE
SAE
SAE
SAE
SAE
SAE
SAE
SAE
SAE
SAE
SAE
SAE
SAE
SAE
SAE
SAE
SAE
SAE
SAE
SAE
SAE
SAE
SAE
SAE
SAE
SAE
SAE
SAE
SAE
SAE
SAE
SAE
SAE
SAE
SAE
SAE
SAE
SAE
SAE
SAE
SAE
SAE
SAE
SAE
SAE
SAE
SAE
SAE
SAE
SAE
SAE
SAE
SAE
SAE
SAE
SAE
SAE
SAE
SAE
SAE
SAE
SAE
SAE
SAE
SAE
SAE
SAE
SAE
SAE
SAE
SAE
SAE
SAE
SAE
SAE
SAE
SAE
SAE
SAE
SAE
SAE
SAE
SAE
SAE
SAE
SAE
SAE
SAE
SAE
SAE
SAE
SAE
SAE
SAE
SAE
SAE
SAE
SAE
SAE
SAE
SAE
SAE
SAE
SAE
SAE
SAE
SAE
SAE
SAE
SAE
SAE
SAE
SAE
SAE
SAE
SAE
SAE
SAE
SAE
SAE
SAE
SAE
SAE
SAE
SAE
SAE
SAE
SAE
SAE
SAE
SAE
SAE
SAE
SAE
SAE
SAE
SAE
SAE
SAE
SAE
SAE
SAE
SAE
SAE
SAE
SAE
SAE
SAE
SAE
SAE
SAE
SAE
SAE
SAE
SAE
SAE
SAE
SAE
SAE
SAE
SAE
SAE
SAE
SAE
SAE
SAE
SAE
SAE
SAE
SAE
SAE
SAE
SAE
SAE
SAE
SAE
SAE
SAE
SAE
SAE
SAE
SAE
SAE
SAE
SAE
SAE
SAE
SAE
SAE
SAE
SAE
SAE
SAE
SAE
SAE
SAE
SAE
SAE
SAE
SAE
SAE
SAE
SAE
SAE
SAE
SAE
SAE
SAE
SAE
SAE
SAE
SAE
SAE
SAE
SAE
SAE
SAE
SAE
SAE
SAE
SAE
SAE
SAE
SAE
SAE
SAE
SAE
SAE
SAE
SAE
SAE
SAE
SAE
SAE
SAE
SAE
SAE
SAE
SAE
SAE
SAE
SAE
SAE
SAE
SAE
SAE
SAE
SAE
SAE
SAE
SAE
SAE
SAE
SAE
SAE
SAE
SAE
SAE
SAE
SAE
SAE
SAE
SAE
SAE
SAE
SAE
SAE
SAE
SAE
SAE
SAE
SAE
SAE
SAE
SAE
SAE
SAE
SAE
SAE
SAE
SAE
SAE
SAE
SAE
SAE
SAE
SAE
SAE
SAE
SAE
SAE
SAE
SAE
SAE
SAE
SAE
SAE
SAE
SAE
SAE
SAE
SAE
SAE
SAE
SAE
SAE
SAE
SAE
SAE
SAE
SAE
SAE
SAE
SAE
SAE
SAE
SAE
SAE
SAE
SAE
SAE
SAE
SAE
SAE
SAE
SAE
SAE
SAE
SAE
SAE
SAE
SAE
SAE
SAE
SAE
SAE
SAE
SAE
SAE
SAE
SAE
SAE
SAE
SAE
SAE
SAE
SAE
SAE
SAE
SAE
SAE
SAE
SAE
SAE
SAE
SAE
SAE
SAE
SAE
SAE
SAE
SAE
SAE
SAE
SAE
SAE
SAE
SAE
SAE
SAE
SAE
SAE
Heartbeat CPU 3 instructions: 50000001 cycles: 22039756 heartbeat IPC: 2.33216 cumulative IPC: 2.26863 (Simulation time: 0 hr 36 min 1 sec) 
 Total Blocks : 196608 Invalid Blocks : 771
SAE
Heartbeat CPU 4 instructions: 50000001 cycles: 22041190 heartbeat IPC: 2.33208 cumulative IPC: 2.26848 (Simulation time: 0 hr 36 min 1 sec) 
 Total Blocks : 196608 Invalid Blocks : 772
Heartbeat CPU 1 instructions: 50000001 cycles: 22041266 heartbeat IPC: 2.33205 cumulative IPC: 2.26847 (Simulation time: 0 hr 36 min 1 sec) 
 Total Blocks : 196608 Invalid Blocks : 772
Heartbeat CPU 0 instructions: 50000003 cycles: 22041316 heartbeat IPC: 2.33207 cumulative IPC: 2.26847 (Simulation time: 0 hr 36 min 1 sec) 
 Total Blocks : 196608 Invalid Blocks : 772
Heartbeat CPU 2 instructions: 50000001 cycles: 22041354 heartbeat IPC: 2.33201 cumulative IPC: 2.26846 (Simulation time: 0 hr 36 min 1 sec) 
 Total Blocks : 196608 Invalid Blocks : 772
SAE
SAE
Heartbeat CPU 5 instructions: 50000001 cycles: 22042551 heartbeat IPC: 2.33189 cumulative IPC: 2.26834 (Simulation time: 0 hr 36 min 2 sec) 
 Total Blocks : 196608 Invalid Blocks : 773
SAE
SAE
SAE
Heartbeat CPU 6 instructions: 50000001 cycles: 22043297 heartbeat IPC: 2.33181 cumulative IPC: 2.26826 (Simulation time: 0 hr 36 min 2 sec) 
 Total Blocks : 196608 Invalid Blocks : 776
Heartbeat CPU 7 instructions: 50000001 cycles: 22043411 heartbeat IPC: 2.33169 cumulative IPC: 2.26825 (Simulation time: 0 hr 36 min 2 sec) 
 Total Blocks : 196608 Invalid Blocks : 775

Warmup complete CPU 0 instructions: 50005019 cycles: 22043411 (Simulation time: 0 hr 36 min 2 sec) 
Warmup complete CPU 1 instructions: 50005137 cycles: 22043411 (Simulation time: 0 hr 36 min 2 sec) 
Warmup complete CPU 2 instructions: 50004977 cycles: 22043411 (Simulation time: 0 hr 36 min 2 sec) 
Warmup complete CPU 3 instructions: 50008697 cycles: 22043411 (Simulation time: 0 hr 36 min 2 sec) 
Warmup complete CPU 4 instructions: 50005376 cycles: 22043411 (Simulation time: 0 hr 36 min 2 sec) 
Warmup complete CPU 5 instructions: 50002249 cycles: 22043411 (Simulation time: 0 hr 36 min 2 sec) 
Warmup complete CPU 6 instructions: 50000417 cycles: 22043411 (Simulation time: 0 hr 36 min 2 sec) 
Warmup complete CPU 7 instructions: 50000001 cycles: 22043411 (Simulation time: 0 hr 36 min 2 sec) 

SAE
SAE
SAE
SAE
SAE
SAE
SAE
SAE
SAE
SAE
SAE
SAE
SAE
SAE
SAE
SAE
SAE
SAE
SAE
SAE
SAE
SAE
SAE
SAE
SAE
SAE
SAE
SAE
SAE
SAE
SAE
SAE
SAE
SAE
SAE
SAE
SAE
SAE
SAE
SAE
SAE
SAE
SAE
SAE
SAE
SAE
SAE
SAE
SAE
SAE
SAE
SAE
SAE
SAE
SAE
SAE
SAE
SAE
SAE
SAE
SAE
SAE
SAE
SAE
SAE
SAE
SAE
SAE
SAE
SAE
SAE
SAE
SAE
SAE
SAE
SAE
SAE
SAE
SAE
SAE
SAE
SAE
SAE
SAE
SAE
SAE
SAE
SAE
SAE
SAE
SAE
SAE
SAE
SAE
SAE
SAE
SAE
SAE
SAE
SAE
SAE
SAE
SAE
SAE
SAE
SAE
SAE
SAE
SAE
SAE
SAE
SAE
SAE
SAE
SAE
SAE
SAE
SAE
SAE
SAE
SAE
SAE
SAE
SAE
SAE
SAE
SAE
SAE
SAE
SAE
SAE
SAE
SAE
SAE
SAE
SAE
SAE
SAE
SAE
SAE
SAE
SAE
SAE
SAE
SAE
SAE
SAE
SAE
SAE
SAE
SAE
SAE
SAE
SAE
SAE
SAE
SAE
SAE
SAE
SAE
SAE
SAE
SAE
SAE
SAE
SAE
SAE
SAE
SAE
SAE
SAE
SAE
SAE
SAE
SAE
SAE
SAE
SAE
SAE
SAE
SAE
SAE
SAE
SAE
SAE
SAE
SAE
SAE
SAE
SAE
SAE
SAE
SAE
SAE
SAE
SAE
SAE
SAE
SAE
SAE
SAE
SAE
SAE
SAE
SAE
SAE
SAE
SAE
SAE
SAE
SAE
SAE
SAE
SAE
SAE
SAE
SAE
SAE
SAE
SAE
SAE
SAE
SAE
SAE
SAE
SAE
SAE
SAE
SAE
SAE
SAE
SAE
SAE
SAE
SAE
SAE
SAE
SAE
SAE
SAE
SAE
SAE
SAE
SAE
SAE
SAE
SAE
SAE
SAE
SAE
SAE
SAE
SAE
SAE
SAE
SAE
SAE
SAE
SAE
SAE
SAE
SAE
SAE
SAE
SAE
SAE
SAE
SAE
SAE
SAE
SAE
SAE
SAE
SAE
SAE
SAE
SAE
SAE
SAE
SAE
SAE
SAE
SAE
SAE
SAE
SAE
SAE
SAE
SAE
SAE
SAE
SAE
SAE
SAE
SAE
SAE
SAE
SAE
SAE
SAE
SAE
SAE
SAE
SAE
SAE
SAE
SAE
SAE
SAE
SAE
SAE
SAE
SAE
SAE
SAE
SAE
SAE
SAE
SAE
SAE
SAE
SAE
SAE
SAE
SAE
SAE
SAE
SAE
SAE
SAE
SAE
SAE
SAE
SAE
SAE
SAE
SAE
SAE
SAE
SAE
SAE
SAE
SAE
SAE
SAE
SAE
SAE
SAE
SAE
SAE
SAE
SAE
SAE
SAE
SAE
SAE
SAE
SAE
SAE
SAE
SAE
SAE
SAE
SAE
SAE
SAE
SAE
SAE
SAE
SAE
SAE
SAE
SAE
SAE
SAE
SAE
SAE
SAE
SAE
SAE
SAE
SAE
SAE
SAE
SAE
SAE
SAE
SAE
SAE
SAE
SAE
SAE
SAE
SAE
SAE
SAE
SAE
SAE
SAE
SAE
SAE
SAE
SAE
SAE
SAE
SAE
SAE
SAE
SAE
SAE
SAE
SAE
SAE
SAE
SAE
SAE
SAE
SAE
SAE
SAE
SAE
SAE
SAE
SAE
SAE
SAE
SAE
SAE
SAE
SAE
SAE
SAE
SAE
SAE
SAE
SAE
SAE
SAE
SAE
SAE
SAE
SAE
SAE
SAE
SAE
SAE
SAE
SAE
SAE
SAE
SAE
SAE
SAE
SAE
SAE
SAE
SAE
SAE
SAE
SAE
SAE
SAE
SAE
SAE
SAE
SAE
SAE
SAE
SAE
SAE
SAE
SAE
SAE
SAE
SAE
SAE
SAE
SAE
SAE
SAE
SAE
SAE
SAE
SAE
SAE
SAE
SAE
SAE
SAE
SAE
SAE
SAE
SAE
SAE
SAE
SAE
SAE
SAE
SAE
SAE
SAE
SAE
SAE
SAE
SAE
SAE
SAE
SAE
SAE
SAE
SAE
SAE
SAE
SAE
SAE
SAE
SAE
SAE
SAE
SAE
SAE
SAE
SAE
SAE
SAE
SAE
SAE
SAE
SAE
SAE
SAE
SAE
SAE
SAE
SAE
SAE
SAE
SAE
SAE
SAE
SAE
SAE
SAE
SAE
SAE
SAE
SAE
SAE
SAE
SAE
SAE
SAE
SAE
SAE
SAE
SAE
SAE
SAE
SAE
SAE
SAE
SAE
SAE
SAE
SAE
SAE
SAE
SAE
SAE
SAE
SAE
SAE
SAE
SAE
SAE
SAE
SAE
SAE
SAE
SAE
SAE
SAE
SAE
SAE
SAE
SAE
SAE
SAE
SAE
SAE
SAE
SAE
SAE
SAE
SAE
SAE
SAE
SAE
SAE
SAE
SAE
SAE
SAE
SAE
SAE
SAE
SAE
SAE
SAE
SAE
SAE
SAE
SAE
SAE
SAE
SAE
SAE
SAE
SAE
SAE
SAE
SAE
SAE
SAE
SAE
SAE
SAE
SAE
SAE
SAE
SAE
SAE
SAE
SAE
SAE
SAE
SAE
SAE
SAE
SAE
SAE
SAE
SAE
SAE
SAE
SAE
SAE
SAE
SAE
SAE
SAE
SAE
SAE
SAE
SAE
SAE
SAE
SAE
SAE
SAE
SAE
SAE
SAE
SAE
SAE
SAE
SAE
SAE
SAE
SAE
SAE
SAE
SAE
SAE
SAE
SAE
SAE
SAE
SAE
SAE
SAE
SAE
SAE
SAE
SAE
SAE
SAE
SAE
SAE
SAE
SAE
SAE
SAE
SAE
SAE
SAE
SAE
SAE
SAE
SAE
SAE
SAE
SAE
SAE
SAE
SAE
SAE
SAE
SAE
SAE
SAE
SAE
SAE
SAE
SAE
SAE
SAE
SAE
SAE
SAE
SAE
SAE
SAE
SAE
SAE
SAE
SAE
SAE
SAE
SAE
SAE
SAE
SAE
SAE
SAE
SAE
SAE
SAE
SAE
SAE
SAE
SAE
SAE
SAE
SAE
SAE
SAE
SAE
SAE
SAE
SAE
SAE
SAE
SAE
SAE
SAE
SAE
SAE
SAE
SAE
SAE
SAE
SAE
SAE
SAE
SAE
SAE
SAE
SAE
SAE
SAE
SAE
SAE
SAE
SAE
SAE
SAE
SAE
SAE
SAE
SAE
SAE
SAE
SAE
SAE
SAE
SAE
SAE
SAE
SAE
SAE
SAE
SAE
SAE
SAE
SAE
SAE
SAE
SAE
SAE
SAE
SAE
SAE
SAE
SAE
SAE
SAE
SAE
SAE
SAE
SAE
SAE
SAE
SAE
SAE
SAE
SAE
SAE
SAE
SAE
SAE
SAE
SAE
SAE
SAE
SAE
SAE
SAE
SAE
SAE
SAE
SAE
SAE
SAE
SAE
SAE
SAE
SAE
SAE
SAE
SAE
SAE
SAE
SAE
SAE
SAE
SAE
SAE
SAE
SAE
SAE
SAE
SAE
SAE
SAE
SAE
SAE
SAE
SAE
SAE
SAE
SAE
SAE
SAE
SAE
SAE
SAE
SAE
SAE
SAE
SAE
SAE
SAE
SAE
SAE
SAE
SAE
SAE
SAE
SAE
SAE
SAE
SAE
SAE
SAE
SAE
SAE
SAE
SAE
SAE
SAE
SAE
SAE
SAE
SAE
SAE
SAE
SAE
SAE
SAE
SAE
SAE
SAE
SAE
SAE
SAE
SAE
SAE
SAE
SAE
SAE
SAE
SAE
SAE
SAE
SAE
SAE
SAE
SAE
SAE
SAE
SAE
SAE
SAE
SAE
SAE
SAE
SAE
SAE
SAE
SAE
SAE
SAE
SAE
SAE
SAE
SAE
SAE
SAE
SAE
SAE
SAE
SAE
SAE
SAE
SAE
SAE
SAE
SAE
SAE
SAE
SAE
SAE
SAE
SAE
SAE
SAE
SAE
SAE
SAE
SAE
SAE
SAE
SAE
SAE
SAE
SAE
SAE
SAE
SAE
SAE
SAE
SAE
SAE
SAE
SAE
SAE
SAE
SAE
SAE
SAE
SAE
SAE
SAE
SAE
SAE
SAE
SAE
SAE
SAE
SAE
SAE
SAE
SAE
SAE
SAE
SAE
SAE
SAE
SAE
SAE
SAE
SAE
SAE
SAE
SAE
SAE
SAE
SAE
SAE
SAE
SAE
SAE
SAE
SAE
SAE
SAE
SAE
SAE
SAE
SAE
SAE
SAE
SAE
SAE
SAE
SAE
SAE
SAE
SAE
SAE
SAE
SAE
SAE
SAE
SAE
SAE
SAE
SAE
SAE
SAE
SAE
SAE
SAE
SAE
SAE
SAE
SAE
SAE
SAE
SAE
SAE
SAE
SAE
SAE
SAE
SAE
SAE
SAE
SAE
SAE
SAE
SAE
SAE
SAE
SAE
SAE
SAE
SAE
SAE
SAE
SAE
SAE
SAE
SAE
SAE
SAE
SAE
SAE
SAE
SAE
SAE
SAE
SAE
SAE
SAE
SAE
SAE
SAE
SAE
SAE
SAE
SAE
SAE
SAE
SAE
SAE
SAE
SAE
SAE
SAE
SAE
SAE
SAE
SAE
SAE
SAE
SAE
SAE
SAE
SAE
SAE
SAE
SAE
SAE
SAE
SAE
SAE
SAE
SAE
SAE
SAE
SAE
SAE
SAE
SAE
SAE
SAE
SAE
SAE
SAE
SAE
SAE
SAE
SAE
SAE
SAE
SAE
SAE
SAE
SAE
SAE
SAE
SAE
SAE
SAE
SAE
SAE
SAE
SAE
SAE
SAE
SAE
SAE
SAE
SAE
SAE
SAE
SAE
SAE
SAE
SAE
SAE
SAE
SAE
SAE
SAE
SAE
SAE
SAE
SAE
SAE
SAE
SAE
SAE
SAE
SAE
SAE
SAE
SAE
SAE
SAE
SAE
SAE
SAE
SAE
SAE
SAE
SAE
SAE
SAE
SAE
SAE
SAE
SAE
SAE
SAE
SAE
SAE
SAE
SAE
SAE
SAE
SAE
SAE
SAE
SAE
SAE
SAE
SAE
SAE
SAE
SAE
SAE
SAE
SAE
SAE
SAE
SAE
SAE
SAE
SAE
SAE
SAE
SAE
SAE
SAE
SAE
SAE
SAE
SAE
SAE
SAE
SAE
SAE
SAE
SAE
SAE
SAE
SAE
SAE
SAE
SAE
SAE
SAE
SAE
SAE
SAE
SAE
SAE
SAE
SAE
SAE
SAE
SAE
SAE
SAE
SAE
SAE
SAE
SAE
SAE
SAE
SAE
SAE
SAE
SAE
SAE
SAE
SAE
SAE
SAE
SAE
SAE
SAE
SAE
SAE
SAE
SAE
SAE
SAE
SAE
SAE
SAE
SAE
SAE
SAE
SAE
SAE
SAE
SAE
SAE
SAE
SAE
SAE
SAE
SAE
SAE
SAE
SAE
SAE
SAE
SAE
SAE
SAE
SAE
SAE
SAE
SAE
SAE
SAE
SAE
SAE
SAE
SAE
SAE
SAE
SAE
SAE
SAE
SAE
SAE
SAE
SAE
SAE
SAE
SAE
SAE
SAE
SAE
SAE
SAE
SAE
SAE
SAE
SAE
SAE
SAE
SAE
SAE
SAE
SAE
SAE
SAE
SAE
SAE
SAE
SAE
SAE
SAE
SAE
SAE
SAE
SAE
SAE
SAE
SAE
SAE
SAE
SAE
SAE
SAE
SAE
SAE
SAE
SAE
SAE
SAE
SAE
SAE
SAE
SAE
SAE
SAE
SAE
SAE
SAE
SAE
SAE
SAE
SAE
SAE
SAE
SAE
SAE
SAE
SAE
SAE
SAE
SAE
SAE
SAE
SAE
SAE
SAE
SAE
SAE
SAE
SAE
SAE
SAE
SAE
SAE
SAE
SAE
SAE
SAE
SAE
SAE
SAE
SAE
SAE
SAE
SAE
SAE
SAE
SAE
SAE
SAE
SAE
SAE
SAE
SAE
SAE
SAE
SAE
SAE
SAE
SAE
SAE
SAE
SAE
SAE
SAE
SAE
SAE
SAE
SAE
SAE
SAE
SAE
SAE
SAE
SAE
SAE
SAE
SAE
SAE
SAE
SAE
SAE
SAE
SAE
SAE
SAE
SAE
SAE
SAE
SAE
SAE
SAE
SAE
SAE
SAE
SAE
SAE
SAE
SAE
SAE
SAE
SAE
SAE
SAE
SAE
SAE
SAE
SAE
SAE
SAE
SAE
SAE
SAE
SAE
SAE
SAE
SAE
SAE
SAE
SAE
SAE
SAE
SAE
SAE
SAE
SAE
SAE
SAE
SAE
SAE
SAE
SAE
SAE
SAE
SAE
SAE
SAE
SAE
SAE
SAE
SAE
SAE
SAE
SAE
SAE
SAE
SAE
SAE
SAE
SAE
SAE
SAE
SAE
SAE
SAE
SAE
SAE
SAE
SAE
SAE
SAE
SAE
SAE
SAE
SAE
SAE
SAE
SAE
SAE
SAE
SAE
SAE
SAE
SAE
SAE
SAE
SAE
SAE
SAE
SAE
SAE
SAE
SAE
SAE
SAE
SAE
SAE
SAE
SAE
SAE
SAE
SAE
SAE
SAE
SAE
SAE
SAE
SAE
SAE
SAE
SAE
SAE
SAE
SAE
SAE
SAE
SAE
SAE
SAE
SAE
SAE
SAE
SAE
SAE
SAE
SAE
SAE
SAE
SAE
SAE
SAE
SAE
SAE
SAE
SAE
SAE
SAE
SAE
SAE
SAE
SAE
SAE
SAE
SAE
SAE
SAE
SAE
SAE
SAE
SAE
SAE
SAE
SAE
SAE
SAE
SAE
SAE
SAE
SAE
SAE
SAE
SAE
SAE
SAE
SAE
SAE
SAE
SAE
SAE
SAE
SAE
SAE
SAE
SAE
SAE
SAE
SAE
SAE
SAE
SAE
SAE
SAE
SAE
SAE
SAE
SAE
SAE
SAE
SAE
SAE
SAE
SAE
SAE
SAE
SAE
SAE
SAE
SAE
SAE
SAE
SAE
SAE
SAE
SAE
SAE
SAE
SAE
SAE
SAE
SAE
SAE
SAE
SAE
SAE
SAE
SAE
SAE
SAE
SAE
SAE
SAE
SAE
SAE
SAE
SAE
SAE
SAE
SAE
SAE
SAE
SAE
SAE
SAE
SAE
SAE
SAE
SAE
SAE
SAE
SAE
SAE
SAE
SAE
SAE
SAE
SAE
SAE
SAE
SAE
SAE
SAE
SAE
SAE
SAE
SAE
SAE
SAE
SAE
SAE
SAE
SAE
SAE
SAE
SAE
SAE
SAE
SAE
SAE
SAE
SAE
SAE
SAE
SAE
SAE
SAE
SAE
SAE
SAE
SAE
SAE
SAE
SAE
SAE
SAE
SAE
SAE
SAE
SAE
SAE
SAE
SAE
SAE
SAE
SAE
SAE
SAE
SAE
SAE
SAE
SAE
SAE
SAE
SAE
SAE
SAE
SAE
SAE
SAE
SAE
SAE
SAE
SAE
SAE
SAE
SAE
SAE
SAE
SAE
SAE
SAE
SAE
SAE
SAE
SAE
SAE
SAE
SAE
SAE
SAE
SAE
SAE
SAE
SAE
SAE
SAE
SAE
SAE
SAE
SAE
SAE
SAE
SAE
SAE
SAE
SAE
SAE
SAE
SAE
SAE
SAE
SAE
SAE
SAE
SAE
SAE
SAE
SAE
SAE
SAE
SAE
SAE
SAE
SAE
SAE
SAE
SAE
SAE
SAE
SAE
SAE
SAE
SAE
SAE
SAE
SAE
SAE
SAE
SAE
SAE
SAE
SAE
SAE
SAE
SAE
SAE
SAE
SAE
SAE
SAE
SAE
SAE
SAE
SAE
SAE
SAE
SAE
SAE
SAE
SAE
SAE
SAE
SAE
SAE
SAE
SAE
SAE
SAE
SAE
SAE
SAE
SAE
SAE
SAE
SAE
SAE
SAE
SAE
SAE
SAE
SAE
SAE
SAE
SAE
SAE
SAE
SAE
SAE
SAE
SAE
SAE
SAE
SAE
SAE
SAE
SAE
SAE
SAE
SAE
SAE
SAE
SAE
SAE
SAE
SAE
SAE
SAE
SAE
SAE
SAE
SAE
SAE
SAE
SAE
SAE
SAE
SAE
SAE
SAE
SAE
SAE
SAE
SAE
SAE
SAE
SAE
SAE
SAE
SAE
SAE
SAE
SAE
SAE
SAE
SAE
SAE
SAE
SAE
SAE
SAE
SAE
SAE
SAE
SAE
SAE
SAE
SAE
SAE
SAE
SAE
SAE
SAE
SAE
SAE
SAE
SAE
SAE
SAE
SAE
SAE
SAE
SAE
SAE
SAE
SAE
SAE
SAE
SAE
SAE
SAE
SAE
SAE
SAE
SAE
SAE
SAE
SAE
SAE
SAE
SAE
SAE
SAE
SAE
SAE
SAE
SAE
SAE
SAE
SAE
SAE
SAE
SAE
SAE
SAE
SAE
SAE
SAE
SAE
SAE
SAE
SAE
SAE
SAE
SAE
SAE
SAE
SAE
SAE
SAE
SAE
SAE
SAE
SAE
SAE
SAE
SAE
SAE
SAE
SAE
SAE
SAE
SAE
SAE
SAE
SAE
SAE
SAE
SAE
SAE
SAE
SAE
SAE
SAE
SAE
SAE
SAE
SAE
SAE
SAE
SAE
SAE
SAE
SAE
SAE
SAE
SAE
SAE
SAE
SAE
SAE
SAE
SAE
SAE
SAE
SAE
SAE
SAE
SAE
SAE
SAE
SAE
SAE
SAE
SAE
SAE
SAE
SAE
SAE
SAE
SAE
SAE
SAE
SAE
SAE
SAE
SAE
SAE
SAE
SAE
SAE
SAE
SAE
SAE
SAE
SAE
SAE
SAE
SAE
SAE
SAE
SAE
SAE
SAE
SAE
SAE
SAE
SAE
SAE
SAE
SAE
SAE
SAE
SAE
SAE
SAE
SAE
SAE
SAE
SAE
SAE
SAE
SAE
SAE
SAE
SAE
SAE
SAE
SAE
SAE
SAE
SAE
SAE
SAE
SAE
SAE
SAE
SAE
SAE
SAE
SAE
SAE
SAE
SAE
SAE
SAE
SAE
SAE
SAE
SAE
SAE
SAE
SAE
SAE
SAE
SAE
SAE
SAE
SAE
SAE
SAE
SAE
SAE
SAE
SAE
SAE
SAE
SAE
SAE
SAE
SAE
SAE
SAE
SAE
SAE
SAE
SAE
SAE
SAE
SAE
SAE
SAE
SAE
SAE
SAE
SAE
SAE
SAE
SAE
SAE
SAE
SAE
SAE
SAE
SAE
SAE
SAE
SAE
SAE
SAE
SAE
SAE
SAE
SAE
SAE
SAE
SAE
SAE
SAE
SAE
SAE
SAE
SAE
SAE
SAE
SAE
SAE
SAE
SAE
SAE
SAE
SAE
SAE
SAE
SAE
SAE
SAE
SAE
SAE
SAE
SAE
SAE
SAE
SAE
SAE
SAE
SAE
SAE
SAE
SAE
SAE
SAE
SAE
SAE
SAE
SAE
SAE
SAE
SAE
SAE
SAE
SAE
SAE
SAE
SAE
SAE
SAE
SAE
SAE
SAE
SAE
SAE
SAE
SAE
SAE
SAE
SAE
SAE
SAE
SAE
Heartbeat CPU 2 instructions: 60000003 cycles: 30801067 heartbeat IPC: 1.14159 cumulative IPC: 1.14129 (Simulation time: 0 hr 43 min 13 sec) 
 Total Blocks : 196608 Invalid Blocks : 742
SAE
SAE
SAE
SAE
SAE
SAE
SAE
SAE
SAE
Heartbeat CPU 4 instructions: 60000003 cycles: 30820319 heartbeat IPC: 1.13907 cumulative IPC: 1.13874 (Simulation time: 0 hr 43 min 14 sec) 
 Total Blocks : 196608 Invalid Blocks : 748
Heartbeat CPU 1 instructions: 60000003 cycles: 30826508 heartbeat IPC: 1.13827 cumulative IPC: 1.13797 (Simulation time: 0 hr 43 min 15 sec) 
 Total Blocks : 196608 Invalid Blocks : 747
Heartbeat CPU 0 instructions: 60000003 cycles: 30831362 heartbeat IPC: 1.13765 cumulative IPC: 1.13735 (Simulation time: 0 hr 43 min 15 sec) 
 Total Blocks : 196608 Invalid Blocks : 746
Heartbeat CPU 6 instructions: 60000003 cycles: 30832830 heartbeat IPC: 1.13772 cumulative IPC: 1.13768 (Simulation time: 0 hr 43 min 15 sec) 
 Total Blocks : 196608 Invalid Blocks : 746
SAE
SAE
SAE
SAE
SAE
SAE
Heartbeat CPU 3 instructions: 60000003 cycles: 30861883 heartbeat IPC: 1.13351 cumulative IPC: 1.133 (Simulation time: 0 hr 43 min 16 sec) 
 Total Blocks : 196608 Invalid Blocks : 744
SAE
SAE
SAE
SAE
SAE
Heartbeat CPU 5 instructions: 60000003 cycles: 30880441 heartbeat IPC: 1.13149 cumulative IPC: 1.13135 (Simulation time: 0 hr 43 min 17 sec) 
 Total Blocks : 196608 Invalid Blocks : 747
Heartbeat CPU 7 instructions: 60000003 cycles: 30884076 heartbeat IPC: 1.13114 cumulative IPC: 1.13114 (Simulation time: 0 hr 43 min 17 sec) 
 Total Blocks : 196608 Invalid Blocks : 747
SAE
SAE
SAE
SAE
SAE
SAE
SAE
SAE
SAE
SAE
SAE
SAE
SAE
SAE
SAE
SAE
SAE
SAE
SAE
SAE
SAE
SAE
SAE
SAE
SAE
SAE
SAE
SAE
SAE
SAE
SAE
SAE
SAE
SAE
SAE
SAE
SAE
SAE
SAE
SAE
SAE
SAE
SAE
SAE
SAE
SAE
SAE
SAE
SAE
SAE
SAE
SAE
SAE
SAE
SAE
SAE
SAE
SAE
SAE
SAE
SAE
SAE
SAE
SAE
SAE
SAE
SAE
SAE
SAE
SAE
SAE
SAE
SAE
SAE
SAE
SAE
SAE
SAE
SAE
SAE
SAE
SAE
SAE
SAE
SAE
SAE
SAE
SAE
SAE
SAE
SAE
SAE
SAE
SAE
SAE
SAE
SAE
SAE
SAE
SAE
SAE
SAE
SAE
SAE
SAE
SAE
SAE
SAE
SAE
SAE
SAE
SAE
SAE
SAE
SAE
SAE
SAE
SAE
SAE
SAE
SAE
SAE
SAE
SAE
SAE
SAE
SAE
SAE
SAE
SAE
SAE
SAE
SAE
SAE
SAE
SAE
SAE
SAE
SAE
SAE
SAE
SAE
SAE
SAE
SAE
SAE
SAE
SAE
SAE
SAE
SAE
SAE
SAE
SAE
SAE
SAE
SAE
SAE
SAE
SAE
SAE
SAE
SAE
SAE
SAE
SAE
SAE
SAE
SAE
SAE
SAE
SAE
SAE
SAE
SAE
SAE
SAE
SAE
SAE
SAE
SAE
SAE
SAE
SAE
SAE
SAE
SAE
SAE
SAE
SAE
SAE
SAE
SAE
SAE
SAE
SAE
SAE
SAE
SAE
SAE
SAE
SAE
SAE
SAE
SAE
SAE
SAE
SAE
SAE
SAE
SAE
SAE
SAE
SAE
SAE
SAE
SAE
SAE
SAE
SAE
SAE
SAE
SAE
SAE
SAE
SAE
SAE
SAE
SAE
SAE
SAE
SAE
SAE
SAE
SAE
SAE
SAE
SAE
SAE
SAE
SAE
SAE
SAE
SAE
SAE
SAE
SAE
SAE
SAE
SAE
SAE
SAE
SAE
SAE
SAE
SAE
SAE
SAE
SAE
SAE
SAE
SAE
SAE
SAE
SAE
SAE
SAE
SAE
SAE
SAE
SAE
SAE
SAE
SAE
SAE
SAE
SAE
SAE
SAE
SAE
SAE
SAE
SAE
SAE
SAE
SAE
SAE
SAE
SAE
SAE
SAE
SAE
SAE
SAE
SAE
SAE
SAE
SAE
SAE
SAE
SAE
SAE
SAE
SAE
SAE
SAE
SAE
SAE
SAE
SAE
SAE
SAE
SAE
SAE
SAE
SAE
SAE
SAE
SAE
SAE
SAE
SAE
SAE
SAE
SAE
SAE
SAE
SAE
SAE
SAE
SAE
SAE
SAE
SAE
SAE
SAE
SAE
SAE
SAE
SAE
SAE
SAE
SAE
SAE
SAE
SAE
SAE
SAE
SAE
SAE
SAE
SAE
SAE
SAE
SAE
SAE
SAE
SAE
SAE
SAE
SAE
SAE
SAE
SAE
SAE
SAE
SAE
SAE
SAE
SAE
SAE
SAE
SAE
SAE
SAE
SAE
SAE
SAE
SAE
SAE
SAE
SAE
SAE
SAE
SAE
SAE
SAE
SAE
SAE
SAE
SAE
SAE
SAE
SAE
SAE
SAE
SAE
SAE
SAE
SAE
SAE
SAE
SAE
SAE
SAE
SAE
SAE
SAE
SAE
SAE
SAE
SAE
SAE
SAE
SAE
SAE
SAE
SAE
SAE
SAE
SAE
SAE
SAE
SAE
SAE
SAE
SAE
SAE
SAE
SAE
SAE
SAE
SAE
SAE
SAE
SAE
SAE
SAE
SAE
SAE
SAE
SAE
SAE
SAE
SAE
SAE
SAE
SAE
SAE
SAE
SAE
SAE
SAE
SAE
SAE
SAE
SAE
SAE
SAE
SAE
SAE
SAE
SAE
SAE
SAE
SAE
SAE
SAE
SAE
SAE
SAE
SAE
SAE
SAE
SAE
SAE
SAE
SAE
SAE
SAE
SAE
SAE
SAE
SAE
SAE
SAE
SAE
SAE
SAE
SAE
SAE
SAE
SAE
SAE
SAE
SAE
SAE
SAE
SAE
SAE
SAE
SAE
SAE
SAE
SAE
SAE
SAE
SAE
SAE
SAE
SAE
SAE
SAE
SAE
SAE
SAE
SAE
SAE
SAE
SAE
SAE
SAE
SAE
SAE
SAE
SAE
SAE
SAE
SAE
SAE
SAE
SAE
SAE
SAE
SAE
SAE
SAE
SAE
SAE
SAE
SAE
SAE
SAE
SAE
SAE
SAE
SAE
SAE
SAE
SAE
SAE
SAE
SAE
SAE
SAE
SAE
SAE
SAE
SAE
SAE
SAE
SAE
SAE
SAE
SAE
SAE
SAE
SAE
SAE
SAE
SAE
SAE
SAE
SAE
SAE
SAE
SAE
SAE
SAE
SAE
SAE
SAE
SAE
SAE
SAE
SAE
SAE
SAE
SAE
SAE
SAE
SAE
SAE
SAE
SAE
SAE
SAE
SAE
SAE
SAE
SAE
SAE
SAE
SAE
SAE
SAE
SAE
SAE
SAE
SAE
SAE
SAE
SAE
SAE
SAE
SAE
SAE
SAE
SAE
SAE
SAE
SAE
SAE
SAE
SAE
SAE
SAE
SAE
SAE
SAE
SAE
SAE
SAE
SAE
SAE
SAE
SAE
SAE
SAE
SAE
SAE
SAE
SAE
SAE
SAE
SAE
SAE
SAE
SAE
SAE
SAE
SAE
SAE
SAE
SAE
SAE
SAE
SAE
SAE
SAE
SAE
SAE
SAE
SAE
SAE
SAE
SAE
SAE
SAE
SAE
SAE
SAE
SAE
SAE
SAE
SAE
SAE
SAE
SAE
SAE
SAE
SAE
SAE
SAE
SAE
SAE
SAE
SAE
SAE
SAE
SAE
SAE
SAE
SAE
SAE
SAE
SAE
SAE
SAE
SAE
SAE
SAE
SAE
SAE
SAE
SAE
SAE
SAE
SAE
SAE
SAE
